
     RDKit          2D

 24 23  0  0  0  0  0  0  0  0999 V2000
    3.8971    2.2500    0.0000 N   0  0  0  0  0  0  0  0  0  0  0  0
    2.5981    3.0000    0.0000 C   0  0  0  0  0  0  0  0  0  0  0  0
    1.2990    2.2500    0.0000 C   0  0  0  0  0  0  0  0  0  0  0  0
    1.2990    0.7500    0.0000 C   0  0  0  0  0  0  0  0  0  0  0  0
    0.0000    0.0000    0.0000 C   0  0  0  0  0  0  0  0  0  0  0  0
    2.5981   -0.0000    0.0000 C   0  0  0  0  0  0  0  0  0  0  0  0
    2.5981    4.5000    0.0000 C   0  0  0  0  0  0  0  0  0  0  0  0
    1.2990    5.2500    0.0000 O   0  0  0  0  0  0  0  0  0  0  0  0
    3.8971    5.2500    0.0000 N   0  0  0  0  0  0  0  0  0  0  0  0
    3.8971    6.7500    0.0000 C   0  0  0  0  0  0  0  0  0  0  0  0
    5.1962    7.5000    0.0000 C   0  0  0  0  0  0  0  0  0  0  0  0
    5.1962    9.0000    0.0000 C   0  0  0  0  0  0  0  0  0  0  0  0
    6.4952    9.7500    0.0000 C   0  0  0  0  0  0  0  0  0  0  0  0
    3.8971    9.7500    0.0000 C   0  0  0  0  0  0  0  0  0  0  0  0
    2.5981    7.5000    0.0000 C   0  0  0  0  0  0  0  0  0  0  0  0
    1.2990    6.7500    0.0000 O   0  0  0  0  0  0  0  0  0  0  0  0
    2.5981    9.0000    0.0000 N   0  0  0  0  0  0  0  0  0  0  0  0
    1.2990    9.7500    0.0000 C   0  0  0  0  0  0  0  0  0  0  0  0
    1.2990   11.2500    0.0000 C   0  0  0  0  0  0  0  0  0  0  0  0
    0.0000   12.0000    0.0000 C   0  0  0  0  0  0  0  0  0  0  0  0
   -1.2990   12.7500    0.0000 C   0  0  0  0  0  0  0  0  0  0  0  0
    0.0000    9.0000    0.0000 C   0  0  0  0  0  0  0  0  0  0  0  0
    0.0000    7.5000    0.0000 O   0  0  0  0  0  0  0  0  0  0  0  0
   -1.2990    9.7500    0.0000 O   0  0  0  0  0  0  0  0  0  0  0  0
  2  1  1  1
  2  3  1  0
  3  4  1  0
  4  5  1  0
  4  6  1  0
  2  7  1  0
  7  8  2  0
  7  9  1  0
  9 10  1  0
 10 11  1  6
 11 12  1  0
 12 13  1  0
 12 14  1  0
 10 15  1  0
 15 16  2  0
 15 17  1  0
 17 18  1  0
 18 19  1  6
 19 20  1  0
 20 21  3  0
 18 22  1  0
 22 23  2  0
 22 24  1  0
M  END
$$$$

     RDKit          2D

 24 23  0  0  0  0  0  0  0  0999 V2000
    3.8971    2.2500    0.0000 N   0  0  0  0  0  0  0  0  0  0  0  0
    2.5981    3.0000    0.0000 C   0  0  0  0  0  0  0  0  0  0  0  0
    1.2990    2.2500    0.0000 C   0  0  0  0  0  0  0  0  0  0  0  0
    1.2990    0.7500    0.0000 C   0  0  0  0  0  0  0  0  0  0  0  0
    0.0000    0.0000    0.0000 C   0  0  0  0  0  0  0  0  0  0  0  0
    2.5981   -0.0000    0.0000 C   0  0  0  0  0  0  0  0  0  0  0  0
    2.5981    4.5000    0.0000 C   0  0  0  0  0  0  0  0  0  0  0  0
    1.2990    5.2500    0.0000 O   0  0  0  0  0  0  0  0  0  0  0  0
    3.8971    5.2500    0.0000 N   0  0  0  0  0  0  0  0  0  0  0  0
    3.8971    6.7500    0.0000 C   0  0  0  0  0  0  0  0  0  0  0  0
    5.1962    7.5000    0.0000 C   0  0  0  0  0  0  0  0  0  0  0  0
    5.1962    9.0000    0.0000 C   0  0  0  0  0  0  0  0  0  0  0  0
    6.4952    9.7500    0.0000 C   0  0  0  0  0  0  0  0  0  0  0  0
    3.8971    9.7500    0.0000 C   0  0  0  0  0  0  0  0  0  0  0  0
    2.5981    7.5000    0.0000 C   0  0  0  0  0  0  0  0  0  0  0  0
    1.2990    6.7500    0.0000 O   0  0  0  0  0  0  0  0  0  0  0  0
    2.5981    9.0000    0.0000 N   0  0  0  0  0  0  0  0  0  0  0  0
    1.2990    9.7500    0.0000 C   0  0  0  0  0  0  0  0  0  0  0  0
    1.2990   11.2500    0.0000 C   0  0  0  0  0  0  0  0  0  0  0  0
    0.0000   12.0000    0.0000 C   0  0  0  0  0  0  0  0  0  0  0  0
   -1.2990   12.7500    0.0000 C   0  0  0  0  0  0  0  0  0  0  0  0
    0.0000    9.0000    0.0000 C   0  0  0  0  0  0  0  0  0  0  0  0
    0.0000    7.5000    0.0000 O   0  0  0  0  0  0  0  0  0  0  0  0
   -1.2990    9.7500    0.0000 O   0  0  0  0  0  0  0  0  0  0  0  0
  2  1  1  6
  2  3  1  0
  3  4  1  0
  4  5  1  0
  4  6  1  0
  2  7  1  0
  7  8  2  0
  7  9  1  0
  9 10  1  0
 10 11  1  6
 11 12  1  0
 12 13  1  0
 12 14  1  0
 10 15  1  0
 15 16  2  0
 15 17  1  0
 17 18  1  0
 18 19  1  6
 19 20  1  0
 20 21  3  0
 18 22  1  0
 22 23  2  0
 22 24  1  0
M  END
$$$$

     RDKit          2D

 23 22  0  0  0  0  0  0  0  0999 V2000
    0.0000    3.0000    0.0000 N   0  0  0  0  0  0  0  0  0  0  0  0
    1.2990    2.2500    0.0000 C   0  0  0  0  0  0  0  0  0  0  0  0
    1.2990    0.7500    0.0000 C   0  0  0  0  0  0  0  0  0  0  0  0
    0.0000    0.0000    0.0000 C   0  0  0  0  0  0  0  0  0  0  0  0
    2.5981   -0.0000    0.0000 C   0  0  0  0  0  0  0  0  0  0  0  0
    2.5981    3.0000    0.0000 C   0  0  0  0  0  0  0  0  0  0  0  0
    3.8971    2.2500    0.0000 O   0  0  0  0  0  0  0  0  0  0  0  0
    2.5981    4.5000    0.0000 N   0  0  0  0  0  0  0  0  0  0  0  0
    3.8971    5.2500    0.0000 C   0  0  0  0  0  0  0  0  0  0  0  0
    3.8971    6.7500    0.0000 C   0  0  0  0  0  0  0  0  0  0  0  0
    5.1962    7.5000    0.0000 C   0  0  0  0  0  0  0  0  0  0  0  0
    5.1962    9.0000    0.0000 C   0  0  0  0  0  0  0  0  0  0  0  0
    6.4952    6.7500    0.0000 C   0  0  0  0  0  0  0  0  0  0  0  0
    5.1962    4.5000    0.0000 C   0  0  0  0  0  0  0  0  0  0  0  0
    5.1962    3.0000    0.0000 O   0  0  0  0  0  0  0  0  0  0  0  0
    6.4952    5.2500    0.0000 N   0  0  0  0  0  0  0  0  0  0  0  0
    7.7942    4.5000    0.0000 C   0  0  0  0  0  0  0  0  0  0  0  0
    9.0933    5.2500    0.0000 C   0  0  0  0  0  0  0  0  0  0  0  0
   10.3923    4.5000    0.0000 C   0  0  0  0  0  0  0  0  0  0  0  0
   11.6913    3.7500    0.0000 C   0  0  0  0  0  0  0  0  0  0  0  0
    7.7942    3.0000    0.0000 C   0  0  0  0  0  0  0  0  0  0  0  0
    6.4952    2.2500    0.0000 O   0  0  0  0  0  0  0  0  0  0  0  0
    9.0933    2.2500    0.0000 O   0  0  0  0  0  0  0  0  0  0  0  0
  2  1  1  6
  2  3  1  0
  3  4  1  0
  3  5  1  0
  2  6  1  0
  6  7  2  0
  6  8  1  0
  8  9  1  0
  9 10  1  1
 10 11  1  0
 11 12  1  0
 11 13  1  0
  9 14  1  0
 14 15  2  0
 14 16  1  0
 16 17  1  0
 17 18  1  1
 18 19  1  0
 19 20  3  0
 17 21  1  0
 21 22  2  0
 21 23  1  0
M  END
$$$$

     RDKit          2D

 23 22  0  0  0  0  0  0  0  0999 V2000
    0.0000    3.0000    0.0000 N   0  0  0  0  0  0  0  0  0  0  0  0
    1.2990    2.2500    0.0000 C   0  0  0  0  0  0  0  0  0  0  0  0
    1.2990    0.7500    0.0000 C   0  0  0  0  0  0  0  0  0  0  0  0
    0.0000    0.0000    0.0000 C   0  0  0  0  0  0  0  0  0  0  0  0
    2.5981   -0.0000    0.0000 C   0  0  0  0  0  0  0  0  0  0  0  0
    2.5981    3.0000    0.0000 C   0  0  0  0  0  0  0  0  0  0  0  0
    3.8971    2.2500    0.0000 O   0  0  0  0  0  0  0  0  0  0  0  0
    2.5981    4.5000    0.0000 N   0  0  0  0  0  0  0  0  0  0  0  0
    3.8971    5.2500    0.0000 C   0  0  0  0  0  0  0  0  0  0  0  0
    3.8971    6.7500    0.0000 C   0  0  0  0  0  0  0  0  0  0  0  0
    5.1962    7.5000    0.0000 C   0  0  0  0  0  0  0  0  0  0  0  0
    5.1962    9.0000    0.0000 C   0  0  0  0  0  0  0  0  0  0  0  0
    6.4952    6.7500    0.0000 C   0  0  0  0  0  0  0  0  0  0  0  0
    5.1962    4.5000    0.0000 C   0  0  0  0  0  0  0  0  0  0  0  0
    5.1962    3.0000    0.0000 O   0  0  0  0  0  0  0  0  0  0  0  0
    6.4952    5.2500    0.0000 N   0  0  0  0  0  0  0  0  0  0  0  0
    7.7942    4.5000    0.0000 C   0  0  0  0  0  0  0  0  0  0  0  0
    9.0933    5.2500    0.0000 C   0  0  0  0  0  0  0  0  0  0  0  0
   10.3923    4.5000    0.0000 C   0  0  0  0  0  0  0  0  0  0  0  0
   11.6913    3.7500    0.0000 C   0  0  0  0  0  0  0  0  0  0  0  0
    7.7942    3.0000    0.0000 C   0  0  0  0  0  0  0  0  0  0  0  0
    6.4952    2.2500    0.0000 O   0  0  0  0  0  0  0  0  0  0  0  0
    9.0933    2.2500    0.0000 O   0  0  0  0  0  0  0  0  0  0  0  0
  2  1  1  1
  2  3  1  0
  3  4  1  0
  3  5  1  0
  2  6  1  0
  6  7  2  0
  6  8  1  0
  8  9  1  0
  9 10  1  1
 10 11  1  0
 11 12  1  0
 11 13  1  0
  9 14  1  0
 14 15  2  0
 14 16  1  0
 16 17  1  0
 17 18  1  1
 18 19  1  0
 19 20  3  0
 17 21  1  0
 21 22  2  0
 21 23  1  0
M  END
$$$$

     RDKit          2D

 25 24  0  0  0  0  0  0  0  0999 V2000
    1.2990    0.7500    0.0000 N   0  0  0  0  0  0  0  0  0  0  0  0
    0.0000    0.0000    0.0000 C   0  0  0  0  0  0  0  0  0  0  0  0
    2.5981   -0.0000    0.0000 C   0  0  0  0  0  0  0  0  0  0  0  0
    3.8971    0.7500    0.0000 C   0  0  0  0  0  0  0  0  0  0  0  0
    5.1962   -0.0000    0.0000 C   0  0  0  0  0  0  0  0  0  0  0  0
    6.4952    0.7500    0.0000 C   0  0  0  0  0  0  0  0  0  0  0  0
    5.1962   -1.5000    0.0000 C   0  0  0  0  0  0  0  0  0  0  0  0
    2.5981   -1.5000    0.0000 C   0  0  0  0  0  0  0  0  0  0  0  0
    1.2990   -2.2500    0.0000 O   0  0  0  0  0  0  0  0  0  0  0  0
    3.8971   -2.2500    0.0000 N   0  0  0  0  0  0  0  0  0  0  0  0
    3.8971   -3.7500    0.0000 C   0  0  0  0  0  0  0  0  0  0  0  0
    5.1962   -4.5000    0.0000 C   0  0  0  0  0  0  0  0  0  0  0  0
    5.1962   -6.0000    0.0000 C   0  0  0  0  0  0  0  0  0  0  0  0
    6.4952   -6.7500    0.0000 C   0  0  0  0  0  0  0  0  0  0  0  0
    3.8971   -6.7500    0.0000 C   0  0  0  0  0  0  0  0  0  0  0  0
    2.5981   -4.5000    0.0000 C   0  0  0  0  0  0  0  0  0  0  0  0
    1.2990   -3.7500    0.0000 O   0  0  0  0  0  0  0  0  0  0  0  0
    2.5981   -6.0000    0.0000 N   0  0  0  0  0  0  0  0  0  0  0  0
    1.2990   -6.7500    0.0000 C   0  0  0  0  0  0  0  0  0  0  0  0
    1.2990   -8.2500    0.0000 C   0  0  0  0  0  0  0  0  0  0  0  0
    0.0000   -9.0000    0.0000 C   0  0  0  0  0  0  0  0  0  0  0  0
   -1.2990   -9.7500    0.0000 C   0  0  0  0  0  0  0  0  0  0  0  0
    0.0000   -6.0000    0.0000 C   0  0  0  0  0  0  0  0  0  0  0  0
    0.0000   -4.5000    0.0000 O   0  0  0  0  0  0  0  0  0  0  0  0
   -1.2990   -6.7500    0.0000 O   0  0  0  0  0  0  0  0  0  0  0  0
  1  2  1  0
  1  3  1  0
  3  4  1  1
  4  5  1  0
  5  6  1  0
  5  7  1  0
  3  8  1  0
  8  9  2  0
  8 10  1  0
 10 11  1  0
 11 12  1  1
 12 13  1  0
 13 14  1  0
 13 15  1  0
 11 16  1  0
 16 17  2  0
 16 18  1  0
 18 19  1  0
 19 20  1  1
 20 21  1  0
 21 22  3  0
 19 23  1  0
 23 24  2  0
 23 25  1  0
M  END
$$$$

     RDKit          2D

 25 24  0  0  0  0  0  0  0  0999 V2000
    1.2990    0.7500    0.0000 N   0  0  0  0  0  0  0  0  0  0  0  0
    0.0000    0.0000    0.0000 C   0  0  0  0  0  0  0  0  0  0  0  0
    2.5981   -0.0000    0.0000 C   0  0  0  0  0  0  0  0  0  0  0  0
    3.8971    0.7500    0.0000 C   0  0  0  0  0  0  0  0  0  0  0  0
    5.1962   -0.0000    0.0000 C   0  0  0  0  0  0  0  0  0  0  0  0
    6.4952    0.7500    0.0000 C   0  0  0  0  0  0  0  0  0  0  0  0
    5.1962   -1.5000    0.0000 C   0  0  0  0  0  0  0  0  0  0  0  0
    2.5981   -1.5000    0.0000 C   0  0  0  0  0  0  0  0  0  0  0  0
    1.2990   -2.2500    0.0000 O   0  0  0  0  0  0  0  0  0  0  0  0
    3.8971   -2.2500    0.0000 N   0  0  0  0  0  0  0  0  0  0  0  0
    3.8971   -3.7500    0.0000 C   0  0  0  0  0  0  0  0  0  0  0  0
    5.1962   -4.5000    0.0000 C   0  0  0  0  0  0  0  0  0  0  0  0
    5.1962   -6.0000    0.0000 C   0  0  0  0  0  0  0  0  0  0  0  0
    6.4952   -6.7500    0.0000 C   0  0  0  0  0  0  0  0  0  0  0  0
    3.8971   -6.7500    0.0000 C   0  0  0  0  0  0  0  0  0  0  0  0
    2.5981   -4.5000    0.0000 C   0  0  0  0  0  0  0  0  0  0  0  0
    1.2990   -3.7500    0.0000 O   0  0  0  0  0  0  0  0  0  0  0  0
    2.5981   -6.0000    0.0000 N   0  0  0  0  0  0  0  0  0  0  0  0
    1.2990   -6.7500    0.0000 C   0  0  0  0  0  0  0  0  0  0  0  0
    1.2990   -8.2500    0.0000 C   0  0  0  0  0  0  0  0  0  0  0  0
    0.0000   -9.0000    0.0000 C   0  0  0  0  0  0  0  0  0  0  0  0
   -1.2990   -9.7500    0.0000 C   0  0  0  0  0  0  0  0  0  0  0  0
    0.0000   -6.0000    0.0000 C   0  0  0  0  0  0  0  0  0  0  0  0
    0.0000   -4.5000    0.0000 O   0  0  0  0  0  0  0  0  0  0  0  0
   -1.2990   -6.7500    0.0000 O   0  0  0  0  0  0  0  0  0  0  0  0
  1  2  1  0
  1  3  1  0
  3  4  1  6
  4  5  1  0
  5  6  1  0
  5  7  1  0
  3  8  1  0
  8  9  2  0
  8 10  1  0
 10 11  1  0
 11 12  1  1
 12 13  1  0
 13 14  1  0
 13 15  1  0
 11 16  1  0
 16 17  2  0
 16 18  1  0
 18 19  1  0
 19 20  1  1
 20 21  1  0
 21 22  3  0
 19 23  1  0
 23 24  2  0
 23 25  1  0
M  END
$$$$

     RDKit          2D

 27 27  0  0  0  0  0  0  0  0999 V2000
    3.0000   -2.5981    0.0000 N   0  0  0  0  0  0  0  0  0  0  0  0
    3.7500   -1.2990    0.0000 C   0  0  0  0  0  0  0  0  0  0  0  0
    3.0000    0.0000    0.0000 C   0  0  0  0  0  0  0  0  0  0  0  0
    1.5000    0.0000    0.0000 C   0  0  0  0  0  0  0  0  0  0  0  0
    0.7500   -1.2990    0.0000 C   0  0  0  0  0  0  0  0  0  0  0  0
   -0.7500   -1.2990    0.0000 C   0  0  0  0  0  0  0  0  0  0  0  0
   -1.5000    0.0000    0.0000 C   0  0  0  0  0  0  0  0  0  0  0  0
   -0.7500    1.2990    0.0000 C   0  0  0  0  0  0  0  0  0  0  0  0
    0.7500    1.2990    0.0000 C   0  0  0  0  0  0  0  0  0  0  0  0
    5.2500   -1.2990    0.0000 C   0  0  0  0  0  0  0  0  0  0  0  0
    6.0000    0.0000    0.0000 O   0  0  0  0  0  0  0  0  0  0  0  0
    6.0000   -2.5981    0.0000 N   0  0  0  0  0  0  0  0  0  0  0  0
    7.5000   -2.5981    0.0000 C   0  0  0  0  0  0  0  0  0  0  0  0
    8.2500   -3.8971    0.0000 C   0  0  0  0  0  0  0  0  0  0  0  0
    9.7500   -3.8971    0.0000 C   0  0  0  0  0  0  0  0  0  0  0  0
   10.5000   -5.1962    0.0000 C   0  0  0  0  0  0  0  0  0  0  0  0
   10.5000   -2.5981    0.0000 C   0  0  0  0  0  0  0  0  0  0  0  0
    8.2500   -1.2990    0.0000 C   0  0  0  0  0  0  0  0  0  0  0  0
    7.5000    0.0000    0.0000 O   0  0  0  0  0  0  0  0  0  0  0  0
    9.7500   -1.2990    0.0000 N   0  0  0  0  0  0  0  0  0  0  0  0
   10.5000    0.0000    0.0000 C   0  0  0  0  0  0  0  0  0  0  0  0
   12.0000    0.0000    0.0000 C   0  0  0  0  0  0  0  0  0  0  0  0
   12.7500    1.2990    0.0000 C   0  0  0  0  0  0  0  0  0  0  0  0
   13.5000    2.5981    0.0000 C   0  0  0  0  0  0  0  0  0  0  0  0
    9.7500    1.2990    0.0000 C   0  0  0  0  0  0  0  0  0  0  0  0
    8.2500    1.2990    0.0000 O   0  0  0  0  0  0  0  0  0  0  0  0
   10.5000    2.5981    0.0000 O   0  0  0  0  0  0  0  0  0  0  0  0
  2  1  1  1
  2  3  1  0
  3  4  1  0
  4  5  2  0
  5  6  1  0
  6  7  2  0
  7  8  1  0
  8  9  2  0
  2 10  1  0
 10 11  2  0
 10 12  1  0
 12 13  1  0
 13 14  1  6
 14 15  1  0
 15 16  1  0
 15 17  1  0
 13 18  1  0
 18 19  2  0
 18 20  1  0
 20 21  1  0
 21 22  1  6
 22 23  1  0
 23 24  3  0
 21 25  1  0
 25 26  2  0
 25 27  1  0
  9  4  1  0
M  END
$$$$

     RDKit          2D

 27 27  0  0  0  0  0  0  0  0999 V2000
    3.0000   -2.5981    0.0000 N   0  0  0  0  0  0  0  0  0  0  0  0
    3.7500   -1.2990    0.0000 C   0  0  0  0  0  0  0  0  0  0  0  0
    3.0000    0.0000    0.0000 C   0  0  0  0  0  0  0  0  0  0  0  0
    1.5000    0.0000    0.0000 C   0  0  0  0  0  0  0  0  0  0  0  0
    0.7500   -1.2990    0.0000 C   0  0  0  0  0  0  0  0  0  0  0  0
   -0.7500   -1.2990    0.0000 C   0  0  0  0  0  0  0  0  0  0  0  0
   -1.5000    0.0000    0.0000 C   0  0  0  0  0  0  0  0  0  0  0  0
   -0.7500    1.2990    0.0000 C   0  0  0  0  0  0  0  0  0  0  0  0
    0.7500    1.2990    0.0000 C   0  0  0  0  0  0  0  0  0  0  0  0
    5.2500   -1.2990    0.0000 C   0  0  0  0  0  0  0  0  0  0  0  0
    6.0000    0.0000    0.0000 O   0  0  0  0  0  0  0  0  0  0  0  0
    6.0000   -2.5981    0.0000 N   0  0  0  0  0  0  0  0  0  0  0  0
    7.5000   -2.5981    0.0000 C   0  0  0  0  0  0  0  0  0  0  0  0
    8.2500   -3.8971    0.0000 C   0  0  0  0  0  0  0  0  0  0  0  0
    9.7500   -3.8971    0.0000 C   0  0  0  0  0  0  0  0  0  0  0  0
   10.5000   -5.1962    0.0000 C   0  0  0  0  0  0  0  0  0  0  0  0
   10.5000   -2.5981    0.0000 C   0  0  0  0  0  0  0  0  0  0  0  0
    8.2500   -1.2990    0.0000 C   0  0  0  0  0  0  0  0  0  0  0  0
    7.5000    0.0000    0.0000 O   0  0  0  0  0  0  0  0  0  0  0  0
    9.7500   -1.2990    0.0000 N   0  0  0  0  0  0  0  0  0  0  0  0
   10.5000    0.0000    0.0000 C   0  0  0  0  0  0  0  0  0  0  0  0
   12.0000    0.0000    0.0000 C   0  0  0  0  0  0  0  0  0  0  0  0
   12.7500    1.2990    0.0000 C   0  0  0  0  0  0  0  0  0  0  0  0
   13.5000    2.5981    0.0000 C   0  0  0  0  0  0  0  0  0  0  0  0
    9.7500    1.2990    0.0000 C   0  0  0  0  0  0  0  0  0  0  0  0
    8.2500    1.2990    0.0000 O   0  0  0  0  0  0  0  0  0  0  0  0
   10.5000    2.5981    0.0000 O   0  0  0  0  0  0  0  0  0  0  0  0
  2  1  1  6
  2  3  1  0
  3  4  1  0
  4  5  2  0
  5  6  1  0
  6  7  2  0
  7  8  1  0
  8  9  2  0
  2 10  1  0
 10 11  2  0
 10 12  1  0
 12 13  1  0
 13 14  1  6
 14 15  1  0
 15 16  1  0
 15 17  1  0
 13 18  1  0
 18 19  2  0
 18 20  1  0
 20 21  1  0
 21 22  1  6
 22 23  1  0
 23 24  3  0
 21 25  1  0
 25 26  2  0
 25 27  1  0
  9  4  1  0
M  END
$$$$

     RDKit          2D

 28 28  0  0  0  0  0  0  0  0999 V2000
    3.0000   -2.5981    0.0000 N   0  0  0  0  0  0  0  0  0  0  0  0
    3.7500   -3.8971    0.0000 C   0  0  0  0  0  0  0  0  0  0  0  0
    3.7500   -1.2990    0.0000 C   0  0  0  0  0  0  0  0  0  0  0  0
    3.0000    0.0000    0.0000 C   0  0  0  0  0  0  0  0  0  0  0  0
    1.5000    0.0000    0.0000 C   0  0  0  0  0  0  0  0  0  0  0  0
    0.7500   -1.2990    0.0000 C   0  0  0  0  0  0  0  0  0  0  0  0
   -0.7500   -1.2990    0.0000 C   0  0  0  0  0  0  0  0  0  0  0  0
   -1.5000    0.0000    0.0000 C   0  0  0  0  0  0  0  0  0  0  0  0
   -0.7500    1.2990    0.0000 C   0  0  0  0  0  0  0  0  0  0  0  0
    0.7500    1.2990    0.0000 C   0  0  0  0  0  0  0  0  0  0  0  0
    5.2500   -1.2990    0.0000 C   0  0  0  0  0  0  0  0  0  0  0  0
    6.0000    0.0000    0.0000 O   0  0  0  0  0  0  0  0  0  0  0  0
    6.0000   -2.5981    0.0000 N   0  0  0  0  0  0  0  0  0  0  0  0
    7.5000   -2.5981    0.0000 C   0  0  0  0  0  0  0  0  0  0  0  0
    8.2500   -3.8971    0.0000 C   0  0  0  0  0  0  0  0  0  0  0  0
    9.7500   -3.8971    0.0000 C   0  0  0  0  0  0  0  0  0  0  0  0
   10.5000   -5.1962    0.0000 C   0  0  0  0  0  0  0  0  0  0  0  0
   10.5000   -2.5981    0.0000 C   0  0  0  0  0  0  0  0  0  0  0  0
    8.2500   -1.2990    0.0000 C   0  0  0  0  0  0  0  0  0  0  0  0
    7.5000    0.0000    0.0000 O   0  0  0  0  0  0  0  0  0  0  0  0
    9.7500   -1.2990    0.0000 N   0  0  0  0  0  0  0  0  0  0  0  0
   10.5000    0.0000    0.0000 C   0  0  0  0  0  0  0  0  0  0  0  0
   12.0000    0.0000    0.0000 C   0  0  0  0  0  0  0  0  0  0  0  0
   12.7500    1.2990    0.0000 C   0  0  0  0  0  0  0  0  0  0  0  0
   13.5000    2.5981    0.0000 C   0  0  0  0  0  0  0  0  0  0  0  0
    9.7500    1.2990    0.0000 C   0  0  0  0  0  0  0  0  0  0  0  0
    8.2500    1.2990    0.0000 O   0  0  0  0  0  0  0  0  0  0  0  0
   10.5000    2.5981    0.0000 O   0  0  0  0  0  0  0  0  0  0  0  0
  1  2  1  0
  1  3  1  0
  3  4  1  1
  4  5  1  0
  5  6  2  0
  6  7  1  0
  7  8  2  0
  8  9  1  0
  9 10  2  0
  3 11  1  0
 11 12  2  0
 11 13  1  0
 13 14  1  0
 14 15  1  6
 15 16  1  0
 16 17  1  0
 16 18  1  0
 14 19  1  0
 19 20  2  0
 19 21  1  0
 21 22  1  0
 22 23  1  6
 23 24  1  0
 24 25  3  0
 22 26  1  0
 26 27  2  0
 26 28  1  0
 10  5  1  0
M  END
$$$$

     RDKit          2D

 28 28  0  0  0  0  0  0  0  0999 V2000
    3.0000   -2.5981    0.0000 N   0  0  0  0  0  0  0  0  0  0  0  0
    3.7500   -3.8971    0.0000 C   0  0  0  0  0  0  0  0  0  0  0  0
    3.7500   -1.2990    0.0000 C   0  0  0  0  0  0  0  0  0  0  0  0
    3.0000    0.0000    0.0000 C   0  0  0  0  0  0  0  0  0  0  0  0
    1.5000    0.0000    0.0000 C   0  0  0  0  0  0  0  0  0  0  0  0
    0.7500   -1.2990    0.0000 C   0  0  0  0  0  0  0  0  0  0  0  0
   -0.7500   -1.2990    0.0000 C   0  0  0  0  0  0  0  0  0  0  0  0
   -1.5000    0.0000    0.0000 C   0  0  0  0  0  0  0  0  0  0  0  0
   -0.7500    1.2990    0.0000 C   0  0  0  0  0  0  0  0  0  0  0  0
    0.7500    1.2990    0.0000 C   0  0  0  0  0  0  0  0  0  0  0  0
    5.2500   -1.2990    0.0000 C   0  0  0  0  0  0  0  0  0  0  0  0
    6.0000    0.0000    0.0000 O   0  0  0  0  0  0  0  0  0  0  0  0
    6.0000   -2.5981    0.0000 N   0  0  0  0  0  0  0  0  0  0  0  0
    7.5000   -2.5981    0.0000 C   0  0  0  0  0  0  0  0  0  0  0  0
    8.2500   -3.8971    0.0000 C   0  0  0  0  0  0  0  0  0  0  0  0
    9.7500   -3.8971    0.0000 C   0  0  0  0  0  0  0  0  0  0  0  0
   10.5000   -5.1962    0.0000 C   0  0  0  0  0  0  0  0  0  0  0  0
   10.5000   -2.5981    0.0000 C   0  0  0  0  0  0  0  0  0  0  0  0
    8.2500   -1.2990    0.0000 C   0  0  0  0  0  0  0  0  0  0  0  0
    7.5000    0.0000    0.0000 O   0  0  0  0  0  0  0  0  0  0  0  0
    9.7500   -1.2990    0.0000 N   0  0  0  0  0  0  0  0  0  0  0  0
   10.5000    0.0000    0.0000 C   0  0  0  0  0  0  0  0  0  0  0  0
   12.0000    0.0000    0.0000 C   0  0  0  0  0  0  0  0  0  0  0  0
   12.7500    1.2990    0.0000 C   0  0  0  0  0  0  0  0  0  0  0  0
   13.5000    2.5981    0.0000 C   0  0  0  0  0  0  0  0  0  0  0  0
    9.7500    1.2990    0.0000 C   0  0  0  0  0  0  0  0  0  0  0  0
    8.2500    1.2990    0.0000 O   0  0  0  0  0  0  0  0  0  0  0  0
   10.5000    2.5981    0.0000 O   0  0  0  0  0  0  0  0  0  0  0  0
  1  2  1  0
  1  3  1  0
  3  4  1  6
  4  5  1  0
  5  6  2  0
  6  7  1  0
  7  8  2  0
  8  9  1  0
  9 10  2  0
  3 11  1  0
 11 12  2  0
 11 13  1  0
 13 14  1  0
 14 15  1  6
 15 16  1  0
 16 17  1  0
 16 18  1  0
 14 19  1  0
 19 20  2  0
 19 21  1  0
 21 22  1  0
 22 23  1  6
 23 24  1  0
 24 25  3  0
 22 26  1  0
 26 27  2  0
 26 28  1  0
 10  5  1  0
M  END
$$$$

     RDKit          2D

 23 22  0  0  0  0  0  0  0  0999 V2000
    2.5981   -1.5000    0.0000 N   0  0  0  0  0  0  0  0  0  0  0  0
    2.5981   -0.0000    0.0000 C   0  0  0  0  0  0  0  0  0  0  0  0
    1.2990    0.7500    0.0000 C   0  0  0  0  0  0  0  0  0  0  0  0
    1.2990    2.2500    0.0000 O   0  0  0  0  0  0  0  0  0  0  0  0
    0.0000    0.0000    0.0000 C   0  0  0  0  0  0  0  0  0  0  0  0
    3.8971    0.7500    0.0000 C   0  0  0  0  0  0  0  0  0  0  0  0
    3.8971    2.2500    0.0000 O   0  0  0  0  0  0  0  0  0  0  0  0
    5.1962   -0.0000    0.0000 N   0  0  0  0  0  0  0  0  0  0  0  0
    6.4952    0.7500    0.0000 C   0  0  0  0  0  0  0  0  0  0  0  0
    7.7942   -0.0000    0.0000 C   0  0  0  0  0  0  0  0  0  0  0  0
    9.0933    0.7500    0.0000 C   0  0  0  0  0  0  0  0  0  0  0  0
   10.3923   -0.0000    0.0000 C   0  0  0  0  0  0  0  0  0  0  0  0
    9.0933    2.2500    0.0000 C   0  0  0  0  0  0  0  0  0  0  0  0
    6.4952    2.2500    0.0000 C   0  0  0  0  0  0  0  0  0  0  0  0
    5.1962    3.0000    0.0000 O   0  0  0  0  0  0  0  0  0  0  0  0
    7.7942    3.0000    0.0000 N   0  0  0  0  0  0  0  0  0  0  0  0
    7.7942    4.5000    0.0000 C   0  0  0  0  0  0  0  0  0  0  0  0
    9.0933    5.2500    0.0000 C   0  0  0  0  0  0  0  0  0  0  0  0
    9.0933    6.7500    0.0000 C   0  0  0  0  0  0  0  0  0  0  0  0
    9.0933    8.2500    0.0000 C   0  0  0  0  0  0  0  0  0  0  0  0
    6.4952    5.2500    0.0000 C   0  0  0  0  0  0  0  0  0  0  0  0
    5.1962    4.5000    0.0000 O   0  0  0  0  0  0  0  0  0  0  0  0
    6.4952    6.7500    0.0000 O   0  0  0  0  0  0  0  0  0  0  0  0
  2  1  1  1
  2  3  1  0
  3  4  1  0
  3  5  1  1
  2  6  1  0
  6  7  2  0
  6  8  1  0
  8  9  1  0
  9 10  1  6
 10 11  1  0
 11 12  1  0
 11 13  1  0
  9 14  1  0
 14 15  2  0
 14 16  1  0
 16 17  1  0
 17 18  1  6
 18 19  1  0
 19 20  3  0
 17 21  1  0
 21 22  2  0
 21 23  1  0
M  END
$$$$

     RDKit          2D

 23 22  0  0  0  0  0  0  0  0999 V2000
    2.5981   -1.5000    0.0000 N   0  0  0  0  0  0  0  0  0  0  0  0
    2.5981   -0.0000    0.0000 C   0  0  0  0  0  0  0  0  0  0  0  0
    1.2990    0.7500    0.0000 C   0  0  0  0  0  0  0  0  0  0  0  0
    1.2990    2.2500    0.0000 O   0  0  0  0  0  0  0  0  0  0  0  0
    0.0000    0.0000    0.0000 C   0  0  0  0  0  0  0  0  0  0  0  0
    3.8971    0.7500    0.0000 C   0  0  0  0  0  0  0  0  0  0  0  0
    3.8971    2.2500    0.0000 O   0  0  0  0  0  0  0  0  0  0  0  0
    5.1962   -0.0000    0.0000 N   0  0  0  0  0  0  0  0  0  0  0  0
    6.4952    0.7500    0.0000 C   0  0  0  0  0  0  0  0  0  0  0  0
    7.7942   -0.0000    0.0000 C   0  0  0  0  0  0  0  0  0  0  0  0
    9.0933    0.7500    0.0000 C   0  0  0  0  0  0  0  0  0  0  0  0
   10.3923   -0.0000    0.0000 C   0  0  0  0  0  0  0  0  0  0  0  0
    9.0933    2.2500    0.0000 C   0  0  0  0  0  0  0  0  0  0  0  0
    6.4952    2.2500    0.0000 C   0  0  0  0  0  0  0  0  0  0  0  0
    5.1962    3.0000    0.0000 O   0  0  0  0  0  0  0  0  0  0  0  0
    7.7942    3.0000    0.0000 N   0  0  0  0  0  0  0  0  0  0  0  0
    7.7942    4.5000    0.0000 C   0  0  0  0  0  0  0  0  0  0  0  0
    9.0933    5.2500    0.0000 C   0  0  0  0  0  0  0  0  0  0  0  0
    9.0933    6.7500    0.0000 C   0  0  0  0  0  0  0  0  0  0  0  0
    9.0933    8.2500    0.0000 C   0  0  0  0  0  0  0  0  0  0  0  0
    6.4952    5.2500    0.0000 C   0  0  0  0  0  0  0  0  0  0  0  0
    5.1962    4.5000    0.0000 O   0  0  0  0  0  0  0  0  0  0  0  0
    6.4952    6.7500    0.0000 O   0  0  0  0  0  0  0  0  0  0  0  0
  2  1  1  6
  2  3  1  0
  3  4  1  0
  3  5  1  1
  2  6  1  0
  6  7  2  0
  6  8  1  0
  8  9  1  0
  9 10  1  6
 10 11  1  0
 11 12  1  0
 11 13  1  0
  9 14  1  0
 14 15  2  0
 14 16  1  0
 16 17  1  0
 17 18  1  6
 18 19  1  0
 19 20  3  0
 17 21  1  0
 21 22  2  0
 21 23  1  0
M  END
$$$$

     RDKit          2D

 24 23  0  0  0  0  0  0  0  0999 V2000
    1.2990    0.7500    0.0000 N   0  0  0  0  0  0  0  0  0  0  0  0
    0.0000    0.0000    0.0000 C   0  0  0  0  0  0  0  0  0  0  0  0
    2.5981   -0.0000    0.0000 C   0  0  0  0  0  0  0  0  0  0  0  0
    3.8971    0.7500    0.0000 C   0  0  0  0  0  0  0  0  0  0  0  0
    3.8971    2.2500    0.0000 O   0  0  0  0  0  0  0  0  0  0  0  0
    5.1962   -0.0000    0.0000 C   0  0  0  0  0  0  0  0  0  0  0  0
    2.5981   -1.5000    0.0000 C   0  0  0  0  0  0  0  0  0  0  0  0
    1.2990   -2.2500    0.0000 O   0  0  0  0  0  0  0  0  0  0  0  0
    3.8971   -2.2500    0.0000 N   0  0  0  0  0  0  0  0  0  0  0  0
    3.8971   -3.7500    0.0000 C   0  0  0  0  0  0  0  0  0  0  0  0
    5.1962   -4.5000    0.0000 C   0  0  0  0  0  0  0  0  0  0  0  0
    5.1962   -6.0000    0.0000 C   0  0  0  0  0  0  0  0  0  0  0  0
    6.4952   -6.7500    0.0000 C   0  0  0  0  0  0  0  0  0  0  0  0
    3.8971   -6.7500    0.0000 C   0  0  0  0  0  0  0  0  0  0  0  0
    2.5981   -4.5000    0.0000 C   0  0  0  0  0  0  0  0  0  0  0  0
    1.2990   -3.7500    0.0000 O   0  0  0  0  0  0  0  0  0  0  0  0
    2.5981   -6.0000    0.0000 N   0  0  0  0  0  0  0  0  0  0  0  0
    1.2990   -6.7500    0.0000 C   0  0  0  0  0  0  0  0  0  0  0  0
    1.2990   -8.2500    0.0000 C   0  0  0  0  0  0  0  0  0  0  0  0
    0.0000   -9.0000    0.0000 C   0  0  0  0  0  0  0  0  0  0  0  0
   -1.2990   -9.7500    0.0000 C   0  0  0  0  0  0  0  0  0  0  0  0
    0.0000   -6.0000    0.0000 C   0  0  0  0  0  0  0  0  0  0  0  0
    0.0000   -4.5000    0.0000 O   0  0  0  0  0  0  0  0  0  0  0  0
   -1.2990   -6.7500    0.0000 O   0  0  0  0  0  0  0  0  0  0  0  0
  1  2  1  0
  3  1  1  1
  3  4  1  0
  4  5  1  0
  4  6  1  6
  3  7  1  0
  7  8  2  0
  7  9  1  0
  9 10  1  0
 10 11  1  1
 11 12  1  0
 12 13  1  0
 12 14  1  0
 10 15  1  0
 15 16  2  0
 15 17  1  0
 17 18  1  0
 18 19  1  1
 19 20  1  0
 20 21  3  0
 18 22  1  0
 22 23  2  0
 22 24  1  0
M  END
$$$$

     RDKit          2D

 24 23  0  0  0  0  0  0  0  0999 V2000
    1.2990    0.7500    0.0000 N   0  0  0  0  0  0  0  0  0  0  0  0
    0.0000    0.0000    0.0000 C   0  0  0  0  0  0  0  0  0  0  0  0
    2.5981   -0.0000    0.0000 C   0  0  0  0  0  0  0  0  0  0  0  0
    3.8971    0.7500    0.0000 C   0  0  0  0  0  0  0  0  0  0  0  0
    3.8971    2.2500    0.0000 O   0  0  0  0  0  0  0  0  0  0  0  0
    5.1962   -0.0000    0.0000 C   0  0  0  0  0  0  0  0  0  0  0  0
    2.5981   -1.5000    0.0000 C   0  0  0  0  0  0  0  0  0  0  0  0
    1.2990   -2.2500    0.0000 O   0  0  0  0  0  0  0  0  0  0  0  0
    3.8971   -2.2500    0.0000 N   0  0  0  0  0  0  0  0  0  0  0  0
    3.8971   -3.7500    0.0000 C   0  0  0  0  0  0  0  0  0  0  0  0
    5.1962   -4.5000    0.0000 C   0  0  0  0  0  0  0  0  0  0  0  0
    5.1962   -6.0000    0.0000 C   0  0  0  0  0  0  0  0  0  0  0  0
    6.4952   -6.7500    0.0000 C   0  0  0  0  0  0  0  0  0  0  0  0
    3.8971   -6.7500    0.0000 C   0  0  0  0  0  0  0  0  0  0  0  0
    2.5981   -4.5000    0.0000 C   0  0  0  0  0  0  0  0  0  0  0  0
    1.2990   -3.7500    0.0000 O   0  0  0  0  0  0  0  0  0  0  0  0
    2.5981   -6.0000    0.0000 N   0  0  0  0  0  0  0  0  0  0  0  0
    1.2990   -6.7500    0.0000 C   0  0  0  0  0  0  0  0  0  0  0  0
    1.2990   -8.2500    0.0000 C   0  0  0  0  0  0  0  0  0  0  0  0
    0.0000   -9.0000    0.0000 C   0  0  0  0  0  0  0  0  0  0  0  0
   -1.2990   -9.7500    0.0000 C   0  0  0  0  0  0  0  0  0  0  0  0
    0.0000   -6.0000    0.0000 C   0  0  0  0  0  0  0  0  0  0  0  0
    0.0000   -4.5000    0.0000 O   0  0  0  0  0  0  0  0  0  0  0  0
   -1.2990   -6.7500    0.0000 O   0  0  0  0  0  0  0  0  0  0  0  0
  1  2  1  0
  3  1  1  6
  3  4  1  0
  4  5  1  0
  4  6  1  6
  3  7  1  0
  7  8  2  0
  7  9  1  0
  9 10  1  0
 10 11  1  1
 11 12  1  0
 12 13  1  0
 12 14  1  0
 10 15  1  0
 15 16  2  0
 15 17  1  0
 17 18  1  0
 18 19  1  1
 19 20  1  0
 20 21  3  0
 18 22  1  0
 22 23  2  0
 22 24  1  0
M  END
$$$$

     RDKit          2D

 24 23  0  0  0  0  0  0  0  0999 V2000
    2.5981    3.0000    0.0000 N   0  0  0  0  0  0  0  0  0  0  0  0
    1.2990    2.2500    0.0000 C   0  0  0  0  0  0  0  0  0  0  0  0
    1.2990    0.7500    0.0000 C   0  0  0  0  0  0  0  0  0  0  0  0
    0.0000    0.0000    0.0000 C   0  0  0  0  0  0  0  0  0  0  0  0
    2.5981   -0.0000    0.0000 C   0  0  0  0  0  0  0  0  0  0  0  0
    2.5981    4.5000    0.0000 C   0  0  0  0  0  0  0  0  0  0  0  0
    3.8971    5.2500    0.0000 C   0  0  0  0  0  0  0  0  0  0  0  0
    5.1962    4.5000    0.0000 O   0  0  0  0  0  0  0  0  0  0  0  0
    3.8971    6.7500    0.0000 N   0  0  0  0  0  0  0  0  0  0  0  0
    5.1962    7.5000    0.0000 C   0  0  0  0  0  0  0  0  0  0  0  0
    5.1962    9.0000    0.0000 C   0  0  0  0  0  0  0  0  0  0  0  0
    6.4952    9.7500    0.0000 C   0  0  0  0  0  0  0  0  0  0  0  0
    6.4952   11.2500    0.0000 C   0  0  0  0  0  0  0  0  0  0  0  0
    7.7942    9.0000    0.0000 C   0  0  0  0  0  0  0  0  0  0  0  0
    6.4952    6.7500    0.0000 C   0  0  0  0  0  0  0  0  0  0  0  0
    6.4952    5.2500    0.0000 O   0  0  0  0  0  0  0  0  0  0  0  0
    7.7942    7.5000    0.0000 N   0  0  0  0  0  0  0  0  0  0  0  0
    9.0933    6.7500    0.0000 C   0  0  0  0  0  0  0  0  0  0  0  0
   10.3923    7.5000    0.0000 C   0  0  0  0  0  0  0  0  0  0  0  0
   11.6913    6.7500    0.0000 C   0  0  0  0  0  0  0  0  0  0  0  0
   12.9904    6.0000    0.0000 C   0  0  0  0  0  0  0  0  0  0  0  0
    9.0933    5.2500    0.0000 C   0  0  0  0  0  0  0  0  0  0  0  0
    7.7942    4.5000    0.0000 O   0  0  0  0  0  0  0  0  0  0  0  0
   10.3923    4.5000    0.0000 O   0  0  0  0  0  0  0  0  0  0  0  0
  1  2  1  0
  2  3  1  0
  3  4  1  0
  3  5  1  0
  1  6  1  0
  6  7  1  0
  7  8  2  0
  7  9  1  0
  9 10  1  0
 10 11  1  1
 11 12  1  0
 12 13  1  0
 12 14  1  0
 10 15  1  0
 15 16  2  0
 15 17  1  0
 17 18  1  0
 18 19  1  1
 19 20  1  0
 20 21  3  0
 18 22  1  0
 22 23  2  0
 22 24  1  0
M  END
$$$$

     RDKit          2D

 27 26  0  0  0  0  0  0  0  0999 V2000
    3.8971    6.7500    0.0000 N   0  0  0  0  0  0  0  0  0  0  0  0
    3.8971    5.2500    0.0000 C   0  0  0  0  0  0  0  0  0  0  0  0
    2.5981    4.5000    0.0000 C   0  0  0  0  0  0  0  0  0  0  0  0
    2.5981    3.0000    0.0000 C   0  0  0  0  0  0  0  0  0  0  0  0
    1.2990    2.2500    0.0000 O   0  0  0  0  0  0  0  0  0  0  0  0
    1.2990    0.7500    0.0000 C   0  0  0  0  0  0  0  0  0  0  0  0
    0.0000    0.0000    0.0000 C   0  0  0  0  0  0  0  0  0  0  0  0
    2.5981   -0.0000    0.0000 C   0  0  0  0  0  0  0  0  0  0  0  0
    5.1962    7.5000    0.0000 C   0  0  0  0  0  0  0  0  0  0  0  0
    5.1962    9.0000    0.0000 C   0  0  0  0  0  0  0  0  0  0  0  0
    3.8971    9.7500    0.0000 O   0  0  0  0  0  0  0  0  0  0  0  0
    6.4952    9.7500    0.0000 N   0  0  0  0  0  0  0  0  0  0  0  0
    6.4952   11.2500    0.0000 C   0  0  0  0  0  0  0  0  0  0  0  0
    7.7942   12.0000    0.0000 C   0  0  0  0  0  0  0  0  0  0  0  0
    7.7942   13.5000    0.0000 C   0  0  0  0  0  0  0  0  0  0  0  0
    9.0933   14.2500    0.0000 C   0  0  0  0  0  0  0  0  0  0  0  0
    6.4952   14.2500    0.0000 C   0  0  0  0  0  0  0  0  0  0  0  0
    5.1962   12.0000    0.0000 C   0  0  0  0  0  0  0  0  0  0  0  0
    3.8971   11.2500    0.0000 O   0  0  0  0  0  0  0  0  0  0  0  0
    5.1962   13.5000    0.0000 N   0  0  0  0  0  0  0  0  0  0  0  0
    3.8971   14.2500    0.0000 C   0  0  0  0  0  0  0  0  0  0  0  0
    3.8971   15.7500    0.0000 C   0  0  0  0  0  0  0  0  0  0  0  0
    2.5981   16.5000    0.0000 C   0  0  0  0  0  0  0  0  0  0  0  0
    1.2990   17.2500    0.0000 C   0  0  0  0  0  0  0  0  0  0  0  0
    2.5981   13.5000    0.0000 C   0  0  0  0  0  0  0  0  0  0  0  0
    2.5981   12.0000    0.0000 O   0  0  0  0  0  0  0  0  0  0  0  0
    1.2990   14.2500    0.0000 O   0  0  0  0  0  0  0  0  0  0  0  0
  1  2  1  0
  2  3  1  0
  3  4  1  0
  4  5  1  0
  5  6  1  0
  6  7  1  0
  6  8  1  0
  1  9  1  0
  9 10  1  0
 10 11  2  0
 10 12  1  0
 12 13  1  0
 13 14  1  6
 14 15  1  0
 15 16  1  0
 15 17  1  0
 13 18  1  0
 18 19  2  0
 18 20  1  0
 20 21  1  0
 21 22  1  6
 22 23  1  0
 23 24  3  0
 21 25  1  0
 25 26  2  0
 25 27  1  0
M  END
$$$$

     RDKit          2D

 29 29  0  0  0  0  0  0  0  0999 V2000
    6.0000   -2.5981    0.0000 N   0  0  0  0  0  0  0  0  0  0  0  0
    5.2500   -1.2990    0.0000 C   0  0  0  0  0  0  0  0  0  0  0  0
    3.7500   -1.2990    0.0000 C   0  0  0  0  0  0  0  0  0  0  0  0
    3.0000    0.0000    0.0000 O   0  0  0  0  0  0  0  0  0  0  0  0
    1.5000    0.0000    0.0000 C   0  0  0  0  0  0  0  0  0  0  0  0
    0.7500   -1.2990    0.0000 C   0  0  0  0  0  0  0  0  0  0  0  0
   -0.7500   -1.2990    0.0000 C   0  0  0  0  0  0  0  0  0  0  0  0
   -1.5000    0.0000    0.0000 C   0  0  0  0  0  0  0  0  0  0  0  0
   -0.7500    1.2990    0.0000 C   0  0  0  0  0  0  0  0  0  0  0  0
    0.7500    1.2990    0.0000 C   0  0  0  0  0  0  0  0  0  0  0  0
    7.5000   -2.5981    0.0000 C   0  0  0  0  0  0  0  0  0  0  0  0
    8.2500   -3.8971    0.0000 C   0  0  0  0  0  0  0  0  0  0  0  0
    7.5000   -5.1962    0.0000 O   0  0  0  0  0  0  0  0  0  0  0  0
    9.7500   -3.8971    0.0000 N   0  0  0  0  0  0  0  0  0  0  0  0
   10.5000   -5.1962    0.0000 C   0  0  0  0  0  0  0  0  0  0  0  0
   12.0000   -5.1962    0.0000 C   0  0  0  0  0  0  0  0  0  0  0  0
   12.7500   -6.4952    0.0000 C   0  0  0  0  0  0  0  0  0  0  0  0
   14.2500   -6.4952    0.0000 C   0  0  0  0  0  0  0  0  0  0  0  0
   12.0000   -7.7942    0.0000 C   0  0  0  0  0  0  0  0  0  0  0  0
    9.7500   -6.4952    0.0000 C   0  0  0  0  0  0  0  0  0  0  0  0
    8.2500   -6.4952    0.0000 O   0  0  0  0  0  0  0  0  0  0  0  0
   10.5000   -7.7942    0.0000 N   0  0  0  0  0  0  0  0  0  0  0  0
    9.7500   -9.0933    0.0000 C   0  0  0  0  0  0  0  0  0  0  0  0
   10.5000  -10.3923    0.0000 C   0  0  0  0  0  0  0  0  0  0  0  0
    9.7500  -11.6913    0.0000 C   0  0  0  0  0  0  0  0  0  0  0  0
    9.0000  -12.9904    0.0000 C   0  0  0  0  0  0  0  0  0  0  0  0
    8.2500   -9.0933    0.0000 C   0  0  0  0  0  0  0  0  0  0  0  0
    7.5000   -7.7942    0.0000 O   0  0  0  0  0  0  0  0  0  0  0  0
    7.5000  -10.3923    0.0000 O   0  0  0  0  0  0  0  0  0  0  0  0
  1  2  1  0
  2  3  1  0
  3  4  1  0
  4  5  1  0
  5  6  2  0
  6  7  1  0
  7  8  2  0
  8  9  1  0
  9 10  2  0
  1 11  1  0
 11 12  1  0
 12 13  2  0
 12 14  1  0
 14 15  1  0
 15 16  1  1
 16 17  1  0
 17 18  1  0
 17 19  1  0
 15 20  1  0
 20 21  2  0
 20 22  1  0
 22 23  1  0
 23 24  1  1
 24 25  1  0
 25 26  3  0
 23 27  1  0
 27 28  2  0
 27 29  1  0
 10  5  1  0
M  END
$$$$

     RDKit          2D

 32 32  0  0  0  0  0  0  0  0999 V2000
    5.2500   -1.2990    0.0000 N   0  0  0  0  0  0  0  0  0  0  0  0
    3.7500   -1.2990    0.0000 C   0  0  0  0  0  0  0  0  0  0  0  0
    3.0000    0.0000    0.0000 C   0  0  0  0  0  0  0  0  0  0  0  0
    1.5000    0.0000    0.0000 C   0  0  0  0  0  0  0  0  0  0  0  0
    0.7500   -1.2990    0.0000 C   0  0  0  0  0  0  0  0  0  0  0  0
   -0.7500   -1.2990    0.0000 C   0  0  0  0  0  0  0  0  0  0  0  0
   -1.5000    0.0000    0.0000 C   0  0  0  0  0  0  0  0  0  0  0  0
   -0.7500    1.2990    0.0000 C   0  0  0  0  0  0  0  0  0  0  0  0
   -1.5000    2.5981    0.0000 O   0  0  0  0  0  0  0  0  0  0  0  0
   -0.7500    3.8971    0.0000 C   0  0  0  0  0  0  0  0  0  0  0  0
    0.7500    1.2990    0.0000 C   0  0  0  0  0  0  0  0  0  0  0  0
   -3.0000    0.0000    0.0000 O   0  0  0  0  0  0  0  0  0  0  0  0
   -3.7500    1.2990    0.0000 C   0  0  0  0  0  0  0  0  0  0  0  0
    6.0000   -2.5981    0.0000 C   0  0  0  0  0  0  0  0  0  0  0  0
    7.5000   -2.5981    0.0000 C   0  0  0  0  0  0  0  0  0  0  0  0
    8.2500   -1.2990    0.0000 O   0  0  0  0  0  0  0  0  0  0  0  0
    8.2500   -3.8971    0.0000 N   0  0  0  0  0  0  0  0  0  0  0  0
    9.7500   -3.8971    0.0000 C   0  0  0  0  0  0  0  0  0  0  0  0
   10.5000   -5.1962    0.0000 C   0  0  0  0  0  0  0  0  0  0  0  0
   12.0000   -5.1962    0.0000 C   0  0  0  0  0  0  0  0  0  0  0  0
   12.7500   -6.4952    0.0000 C   0  0  0  0  0  0  0  0  0  0  0  0
   12.7500   -3.8971    0.0000 C   0  0  0  0  0  0  0  0  0  0  0  0
   10.5000   -2.5981    0.0000 C   0  0  0  0  0  0  0  0  0  0  0  0
    9.7500   -1.2990    0.0000 O   0  0  0  0  0  0  0  0  0  0  0  0
   12.0000   -2.5981    0.0000 N   0  0  0  0  0  0  0  0  0  0  0  0
   12.7500   -1.2990    0.0000 C   0  0  0  0  0  0  0  0  0  0  0  0
   14.2500   -1.2990    0.0000 C   0  0  0  0  0  0  0  0  0  0  0  0
   15.0000    0.0000    0.0000 C   0  0  0  0  0  0  0  0  0  0  0  0
   15.7500    1.2990    0.0000 C   0  0  0  0  0  0  0  0  0  0  0  0
   12.0000    0.0000    0.0000 C   0  0  0  0  0  0  0  0  0  0  0  0
   10.5000    0.0000    0.0000 O   0  0  0  0  0  0  0  0  0  0  0  0
   12.7500    1.2990    0.0000 O   0  0  0  0  0  0  0  0  0  0  0  0
  1  2  1  0
  2  3  1  0
  3  4  1  0
  4  5  2  0
  5  6  1  0
  6  7  2  0
  7  8  1  0
  8  9  1  0
  9 10  1  0
  8 11  2  0
  7 12  1  0
 12 13  1  0
  1 14  1  0
 14 15  1  0
 15 16  2  0
 15 17  1  0
 17 18  1  0
 18 19  1  6
 19 20  1  0
 20 21  1  0
 20 22  1  0
 18 23  1  0
 23 24  2  0
 23 25  1  0
 25 26  1  0
 26 27  1  6
 27 28  1  0
 28 29  3  0
 26 30  1  0
 30 31  2  0
 30 32  1  0
 11  4  1  0
M  END
$$$$

     RDKit          2D

 39 39  0  0  0  0  0  0  0  0999 V2000
    1.2760    5.1962    0.0000 N   0  0  0  0  0  0  0  0  0  0  0  0
    2.7760    5.1962    0.0000 C   0  0  0  0  0  0  0  0  0  0  0  0
    3.5260    6.4952    0.0000 C   0  0  0  0  0  0  0  0  0  0  0  0
    2.7760    7.7942    0.0000 C   0  0  0  0  0  0  0  0  0  0  0  0
    3.5260    9.0933    0.0000 C   0  0  0  0  0  0  0  0  0  0  0  0
    1.2760    7.7942    0.0000 C   0  0  0  0  0  0  0  0  0  0  0  0
    3.5260    3.8971    0.0000 C   0  0  0  0  0  0  0  0  0  0  0  0
    5.0260    3.8971    0.0000 O   0  0  0  0  0  0  0  0  0  0  0  0
    2.7760    2.5981    0.0000 N   0  0  0  0  0  0  0  0  0  0  0  0
    3.5260    1.2990    0.0000 C   0  0  0  0  0  0  0  0  0  0  0  0
    5.0260    1.2990    0.0000 C   0  0  0  0  0  0  0  0  0  0  0  0
    5.7760    0.0000    0.0000 C   0  0  0  0  0  0  0  0  0  0  0  0
    7.2760    0.0000    0.0000 C   0  0  0  0  0  0  0  0  0  0  0  0
    5.0260   -1.2990    0.0000 C   0  0  0  0  0  0  0  0  0  0  0  0
    2.7760    0.0000    0.0000 C   0  0  0  0  0  0  0  0  0  0  0  0
    3.5260   -1.2990    0.0000 O   0  0  0  0  0  0  0  0  0  0  0  0
    1.2760    0.0000    0.0000 N   0  0  0  0  0  0  0  0  0  0  0  0
    0.3943    1.2135    0.0000 C   0  0  0  0  0  0  0  0  0  0  0  0
   -1.0323    0.7500    0.0000 C   0  0  0  0  0  0  0  0  0  0  0  0
   -1.0323   -0.7500    0.0000 C   0  0  0  0  0  0  0  0  0  0  0  0
    0.3943   -1.2135    0.0000 C   0  0  0  0  0  0  0  0  0  0  0  0
    0.8578   -2.6401    0.0000 C   0  0  0  0  0  0  0  0  0  0  0  0
    2.3250   -2.9520    0.0000 O   0  0  0  0  0  0  0  0  0  0  0  0
   -0.1459   -3.7548    0.0000 N   0  0  0  0  0  0  0  0  0  0  0  0
    0.3177   -5.1814    0.0000 C   0  0  0  0  0  0  0  0  0  0  0  0
   -0.6860   -6.2961    0.0000 C   0  0  0  0  0  0  0  0  0  0  0  0
   -0.2225   -7.7227    0.0000 C   0  0  0  0  0  0  0  0  0  0  0  0
   -1.2262   -8.8374    0.0000 C   0  0  0  0  0  0  0  0  0  0  0  0
    1.2447   -8.0346    0.0000 C   0  0  0  0  0  0  0  0  0  0  0  0
    1.7849   -5.4933    0.0000 C   0  0  0  0  0  0  0  0  0  0  0  0
    2.7886   -4.3786    0.0000 O   0  0  0  0  0  0  0  0  0  0  0  0
    2.2484   -6.9199    0.0000 N   0  0  0  0  0  0  0  0  0  0  0  0
    3.7156   -7.2317    0.0000 C   0  0  0  0  0  0  0  0  0  0  0  0
    4.1791   -8.6583    0.0000 C   0  0  0  0  0  0  0  0  0  0  0  0
    5.6464   -8.9702    0.0000 C   0  0  0  0  0  0  0  0  0  0  0  0
    7.1136   -9.2821    0.0000 C   0  0  0  0  0  0  0  0  0  0  0  0
    4.7193   -6.1170    0.0000 C   0  0  0  0  0  0  0  0  0  0  0  0
    4.2558   -4.6904    0.0000 O   0  0  0  0  0  0  0  0  0  0  0  0
    6.1865   -6.4289    0.0000 O   0  0  0  0  0  0  0  0  0  0  0  0
  2  1  1  1
  2  3  1  0
  3  4  1  0
  4  5  1  0
  4  6  1  0
  2  7  1  0
  7  8  2  0
  7  9  1  0
  9 10  1  0
 10 11  1  1
 11 12  1  0
 12 13  1  0
 12 14  1  0
 10 15  1  0
 15 16  2  0
 15 17  1  0
 17 18  1  0
 18 19  1  0
 19 20  1  0
 20 21  1  0
 21 22  1  6
 22 23  2  0
 22 24  1  0
 24 25  1  0
 25 26  1  6
 26 27  1  0
 27 28  1  0
 27 29  1  0
 25 30  1  0
 30 31  2  0
 30 32  1  0
 32 33  1  0
 33 34  1  6
 34 35  1  0
 35 36  3  0
 33 37  1  0
 37 38  2  0
 37 39  1  0
 21 17  1  0
M  END
$$$$

     RDKit          2D

 39 39  0  0  0  0  0  0  0  0999 V2000
    1.2760    5.1962    0.0000 N   0  0  0  0  0  0  0  0  0  0  0  0
    2.7760    5.1962    0.0000 C   0  0  0  0  0  0  0  0  0  0  0  0
    3.5260    6.4952    0.0000 C   0  0  0  0  0  0  0  0  0  0  0  0
    2.7760    7.7942    0.0000 C   0  0  0  0  0  0  0  0  0  0  0  0
    3.5260    9.0933    0.0000 C   0  0  0  0  0  0  0  0  0  0  0  0
    1.2760    7.7942    0.0000 C   0  0  0  0  0  0  0  0  0  0  0  0
    3.5260    3.8971    0.0000 C   0  0  0  0  0  0  0  0  0  0  0  0
    5.0260    3.8971    0.0000 O   0  0  0  0  0  0  0  0  0  0  0  0
    2.7760    2.5981    0.0000 N   0  0  0  0  0  0  0  0  0  0  0  0
    3.5260    1.2990    0.0000 C   0  0  0  0  0  0  0  0  0  0  0  0
    5.0260    1.2990    0.0000 C   0  0  0  0  0  0  0  0  0  0  0  0
    5.7760    0.0000    0.0000 C   0  0  0  0  0  0  0  0  0  0  0  0
    7.2760    0.0000    0.0000 C   0  0  0  0  0  0  0  0  0  0  0  0
    5.0260   -1.2990    0.0000 C   0  0  0  0  0  0  0  0  0  0  0  0
    2.7760    0.0000    0.0000 C   0  0  0  0  0  0  0  0  0  0  0  0
    3.5260   -1.2990    0.0000 O   0  0  0  0  0  0  0  0  0  0  0  0
    1.2760    0.0000    0.0000 N   0  0  0  0  0  0  0  0  0  0  0  0
    0.3943    1.2135    0.0000 C   0  0  0  0  0  0  0  0  0  0  0  0
   -1.0323    0.7500    0.0000 C   0  0  0  0  0  0  0  0  0  0  0  0
   -1.0323   -0.7500    0.0000 C   0  0  0  0  0  0  0  0  0  0  0  0
    0.3943   -1.2135    0.0000 C   0  0  0  0  0  0  0  0  0  0  0  0
    0.8578   -2.6401    0.0000 C   0  0  0  0  0  0  0  0  0  0  0  0
    2.3250   -2.9520    0.0000 O   0  0  0  0  0  0  0  0  0  0  0  0
   -0.1459   -3.7548    0.0000 N   0  0  0  0  0  0  0  0  0  0  0  0
    0.3177   -5.1814    0.0000 C   0  0  0  0  0  0  0  0  0  0  0  0
   -0.6860   -6.2961    0.0000 C   0  0  0  0  0  0  0  0  0  0  0  0
   -0.2225   -7.7227    0.0000 C   0  0  0  0  0  0  0  0  0  0  0  0
   -1.2262   -8.8374    0.0000 C   0  0  0  0  0  0  0  0  0  0  0  0
    1.2447   -8.0346    0.0000 C   0  0  0  0  0  0  0  0  0  0  0  0
    1.7849   -5.4933    0.0000 C   0  0  0  0  0  0  0  0  0  0  0  0
    2.7886   -4.3786    0.0000 O   0  0  0  0  0  0  0  0  0  0  0  0
    2.2484   -6.9199    0.0000 N   0  0  0  0  0  0  0  0  0  0  0  0
    3.7156   -7.2317    0.0000 C   0  0  0  0  0  0  0  0  0  0  0  0
    4.1791   -8.6583    0.0000 C   0  0  0  0  0  0  0  0  0  0  0  0
    5.6464   -8.9702    0.0000 C   0  0  0  0  0  0  0  0  0  0  0  0
    7.1136   -9.2821    0.0000 C   0  0  0  0  0  0  0  0  0  0  0  0
    4.7193   -6.1170    0.0000 C   0  0  0  0  0  0  0  0  0  0  0  0
    4.2558   -4.6904    0.0000 O   0  0  0  0  0  0  0  0  0  0  0  0
    6.1865   -6.4289    0.0000 O   0  0  0  0  0  0  0  0  0  0  0  0
  2  1  1  6
  2  3  1  0
  3  4  1  0
  4  5  1  0
  4  6  1  0
  2  7  1  0
  7  8  2  0
  7  9  1  0
  9 10  1  0
 10 11  1  1
 11 12  1  0
 12 13  1  0
 12 14  1  0
 10 15  1  0
 15 16  2  0
 15 17  1  0
 17 18  1  0
 18 19  1  0
 19 20  1  0
 20 21  1  0
 21 22  1  6
 22 23  2  0
 22 24  1  0
 24 25  1  0
 25 26  1  6
 26 27  1  0
 27 28  1  0
 27 29  1  0
 25 30  1  0
 30 31  2  0
 30 32  1  0
 32 33  1  0
 33 34  1  6
 34 35  1  0
 35 36  3  0
 33 37  1  0
 37 38  2  0
 37 39  1  0
 21 17  1  0
M  END
$$$$

     RDKit          2D

 40 40  0  0  0  0  0  0  0  0999 V2000
    1.2760    5.1962    0.0000 N   0  0  0  0  0  0  0  0  0  0  0  0
    0.5260    6.4952    0.0000 C   0  0  0  0  0  0  0  0  0  0  0  0
    2.7760    5.1962    0.0000 C   0  0  0  0  0  0  0  0  0  0  0  0
    3.5260    6.4952    0.0000 C   0  0  0  0  0  0  0  0  0  0  0  0
    2.7760    7.7942    0.0000 C   0  0  0  0  0  0  0  0  0  0  0  0
    3.5260    9.0933    0.0000 C   0  0  0  0  0  0  0  0  0  0  0  0
    1.2760    7.7942    0.0000 C   0  0  0  0  0  0  0  0  0  0  0  0
    3.5260    3.8971    0.0000 C   0  0  0  0  0  0  0  0  0  0  0  0
    5.0260    3.8971    0.0000 O   0  0  0  0  0  0  0  0  0  0  0  0
    2.7760    2.5981    0.0000 N   0  0  0  0  0  0  0  0  0  0  0  0
    3.5260    1.2990    0.0000 C   0  0  0  0  0  0  0  0  0  0  0  0
    5.0260    1.2990    0.0000 C   0  0  0  0  0  0  0  0  0  0  0  0
    5.7760    0.0000    0.0000 C   0  0  0  0  0  0  0  0  0  0  0  0
    7.2760    0.0000    0.0000 C   0  0  0  0  0  0  0  0  0  0  0  0
    5.0260   -1.2990    0.0000 C   0  0  0  0  0  0  0  0  0  0  0  0
    2.7760    0.0000    0.0000 C   0  0  0  0  0  0  0  0  0  0  0  0
    3.5260   -1.2990    0.0000 O   0  0  0  0  0  0  0  0  0  0  0  0
    1.2760    0.0000    0.0000 N   0  0  0  0  0  0  0  0  0  0  0  0
    0.3943    1.2135    0.0000 C   0  0  0  0  0  0  0  0  0  0  0  0
   -1.0323    0.7500    0.0000 C   0  0  0  0  0  0  0  0  0  0  0  0
   -1.0323   -0.7500    0.0000 C   0  0  0  0  0  0  0  0  0  0  0  0
    0.3943   -1.2135    0.0000 C   0  0  0  0  0  0  0  0  0  0  0  0
    0.8578   -2.6401    0.0000 C   0  0  0  0  0  0  0  0  0  0  0  0
    2.3250   -2.9520    0.0000 O   0  0  0  0  0  0  0  0  0  0  0  0
   -0.1459   -3.7548    0.0000 N   0  0  0  0  0  0  0  0  0  0  0  0
    0.3177   -5.1814    0.0000 C   0  0  0  0  0  0  0  0  0  0  0  0
   -0.6860   -6.2961    0.0000 C   0  0  0  0  0  0  0  0  0  0  0  0
   -0.2225   -7.7227    0.0000 C   0  0  0  0  0  0  0  0  0  0  0  0
   -1.2262   -8.8374    0.0000 C   0  0  0  0  0  0  0  0  0  0  0  0
    1.2447   -8.0346    0.0000 C   0  0  0  0  0  0  0  0  0  0  0  0
    1.7849   -5.4933    0.0000 C   0  0  0  0  0  0  0  0  0  0  0  0
    2.7886   -4.3786    0.0000 O   0  0  0  0  0  0  0  0  0  0  0  0
    2.2484   -6.9199    0.0000 N   0  0  0  0  0  0  0  0  0  0  0  0
    3.7156   -7.2317    0.0000 C   0  0  0  0  0  0  0  0  0  0  0  0
    4.1791   -8.6583    0.0000 C   0  0  0  0  0  0  0  0  0  0  0  0
    5.6464   -8.9702    0.0000 C   0  0  0  0  0  0  0  0  0  0  0  0
    7.1136   -9.2821    0.0000 C   0  0  0  0  0  0  0  0  0  0  0  0
    4.7193   -6.1170    0.0000 C   0  0  0  0  0  0  0  0  0  0  0  0
    4.2558   -4.6904    0.0000 O   0  0  0  0  0  0  0  0  0  0  0  0
    6.1865   -6.4289    0.0000 O   0  0  0  0  0  0  0  0  0  0  0  0
  1  2  1  0
  1  3  1  0
  3  4  1  1
  4  5  1  0
  5  6  1  0
  5  7  1  0
  3  8  1  0
  8  9  2  0
  8 10  1  0
 10 11  1  0
 11 12  1  1
 12 13  1  0
 13 14  1  0
 13 15  1  0
 11 16  1  0
 16 17  2  0
 16 18  1  0
 18 19  1  0
 19 20  1  0
 20 21  1  0
 21 22  1  0
 22 23  1  6
 23 24  2  0
 23 25  1  0
 25 26  1  0
 26 27  1  6
 27 28  1  0
 28 29  1  0
 28 30  1  0
 26 31  1  0
 31 32  2  0
 31 33  1  0
 33 34  1  0
 34 35  1  6
 35 36  1  0
 36 37  3  0
 34 38  1  0
 38 39  2  0
 38 40  1  0
 22 18  1  0
M  END
$$$$

     RDKit          2D

 40 40  0  0  0  0  0  0  0  0999 V2000
    1.2760    5.1962    0.0000 N   0  0  0  0  0  0  0  0  0  0  0  0
    0.5260    6.4952    0.0000 C   0  0  0  0  0  0  0  0  0  0  0  0
    2.7760    5.1962    0.0000 C   0  0  0  0  0  0  0  0  0  0  0  0
    3.5260    6.4952    0.0000 C   0  0  0  0  0  0  0  0  0  0  0  0
    2.7760    7.7942    0.0000 C   0  0  0  0  0  0  0  0  0  0  0  0
    3.5260    9.0933    0.0000 C   0  0  0  0  0  0  0  0  0  0  0  0
    1.2760    7.7942    0.0000 C   0  0  0  0  0  0  0  0  0  0  0  0
    3.5260    3.8971    0.0000 C   0  0  0  0  0  0  0  0  0  0  0  0
    5.0260    3.8971    0.0000 O   0  0  0  0  0  0  0  0  0  0  0  0
    2.7760    2.5981    0.0000 N   0  0  0  0  0  0  0  0  0  0  0  0
    3.5260    1.2990    0.0000 C   0  0  0  0  0  0  0  0  0  0  0  0
    5.0260    1.2990    0.0000 C   0  0  0  0  0  0  0  0  0  0  0  0
    5.7760    0.0000    0.0000 C   0  0  0  0  0  0  0  0  0  0  0  0
    7.2760    0.0000    0.0000 C   0  0  0  0  0  0  0  0  0  0  0  0
    5.0260   -1.2990    0.0000 C   0  0  0  0  0  0  0  0  0  0  0  0
    2.7760    0.0000    0.0000 C   0  0  0  0  0  0  0  0  0  0  0  0
    3.5260   -1.2990    0.0000 O   0  0  0  0  0  0  0  0  0  0  0  0
    1.2760    0.0000    0.0000 N   0  0  0  0  0  0  0  0  0  0  0  0
    0.3943    1.2135    0.0000 C   0  0  0  0  0  0  0  0  0  0  0  0
   -1.0323    0.7500    0.0000 C   0  0  0  0  0  0  0  0  0  0  0  0
   -1.0323   -0.7500    0.0000 C   0  0  0  0  0  0  0  0  0  0  0  0
    0.3943   -1.2135    0.0000 C   0  0  0  0  0  0  0  0  0  0  0  0
    0.8578   -2.6401    0.0000 C   0  0  0  0  0  0  0  0  0  0  0  0
    2.3250   -2.9520    0.0000 O   0  0  0  0  0  0  0  0  0  0  0  0
   -0.1459   -3.7548    0.0000 N   0  0  0  0  0  0  0  0  0  0  0  0
    0.3177   -5.1814    0.0000 C   0  0  0  0  0  0  0  0  0  0  0  0
   -0.6860   -6.2961    0.0000 C   0  0  0  0  0  0  0  0  0  0  0  0
   -0.2225   -7.7227    0.0000 C   0  0  0  0  0  0  0  0  0  0  0  0
   -1.2262   -8.8374    0.0000 C   0  0  0  0  0  0  0  0  0  0  0  0
    1.2447   -8.0346    0.0000 C   0  0  0  0  0  0  0  0  0  0  0  0
    1.7849   -5.4933    0.0000 C   0  0  0  0  0  0  0  0  0  0  0  0
    2.7886   -4.3786    0.0000 O   0  0  0  0  0  0  0  0  0  0  0  0
    2.2484   -6.9199    0.0000 N   0  0  0  0  0  0  0  0  0  0  0  0
    3.7156   -7.2317    0.0000 C   0  0  0  0  0  0  0  0  0  0  0  0
    4.1791   -8.6583    0.0000 C   0  0  0  0  0  0  0  0  0  0  0  0
    5.6464   -8.9702    0.0000 C   0  0  0  0  0  0  0  0  0  0  0  0
    7.1136   -9.2821    0.0000 C   0  0  0  0  0  0  0  0  0  0  0  0
    4.7193   -6.1170    0.0000 C   0  0  0  0  0  0  0  0  0  0  0  0
    4.2558   -4.6904    0.0000 O   0  0  0  0  0  0  0  0  0  0  0  0
    6.1865   -6.4289    0.0000 O   0  0  0  0  0  0  0  0  0  0  0  0
  1  2  1  0
  1  3  1  0
  3  4  1  6
  4  5  1  0
  5  6  1  0
  5  7  1  0
  3  8  1  0
  8  9  2  0
  8 10  1  0
 10 11  1  0
 11 12  1  1
 12 13  1  0
 13 14  1  0
 13 15  1  0
 11 16  1  0
 16 17  2  0
 16 18  1  0
 18 19  1  0
 19 20  1  0
 20 21  1  0
 21 22  1  0
 22 23  1  6
 23 24  2  0
 23 25  1  0
 25 26  1  0
 26 27  1  6
 27 28  1  0
 28 29  1  0
 28 30  1  0
 26 31  1  0
 31 32  2  0
 31 33  1  0
 33 34  1  0
 34 35  1  6
 35 36  1  0
 36 37  3  0
 34 38  1  0
 38 39  2  0
 38 40  1  0
 22 18  1  0
M  END
$$$$

     RDKit          2D

 39 39  0  0  0  0  0  0  0  0999 V2000
    1.2760    5.1962    0.0000 N   0  0  0  0  0  0  0  0  0  0  0  0
    2.7760    5.1962    0.0000 C   0  0  0  0  0  0  0  0  0  0  0  0
    3.5260    6.4952    0.0000 C   0  0  0  0  0  0  0  0  0  0  0  0
    2.7760    7.7942    0.0000 C   0  0  0  0  0  0  0  0  0  0  0  0
    3.5260    9.0933    0.0000 C   0  0  0  0  0  0  0  0  0  0  0  0
    1.2760    7.7942    0.0000 C   0  0  0  0  0  0  0  0  0  0  0  0
    3.5260    3.8971    0.0000 C   0  0  0  0  0  0  0  0  0  0  0  0
    5.0260    3.8971    0.0000 O   0  0  0  0  0  0  0  0  0  0  0  0
    2.7760    2.5981    0.0000 N   0  0  0  0  0  0  0  0  0  0  0  0
    3.5260    1.2990    0.0000 C   0  0  0  0  0  0  0  0  0  0  0  0
    5.0260    1.2990    0.0000 C   0  0  0  0  0  0  0  0  0  0  0  0
    5.7760    0.0000    0.0000 C   0  0  0  0  0  0  0  0  0  0  0  0
    7.2760    0.0000    0.0000 C   0  0  0  0  0  0  0  0  0  0  0  0
    5.0260   -1.2990    0.0000 C   0  0  0  0  0  0  0  0  0  0  0  0
    2.7760    0.0000    0.0000 C   0  0  0  0  0  0  0  0  0  0  0  0
    3.5260   -1.2990    0.0000 O   0  0  0  0  0  0  0  0  0  0  0  0
    1.2760    0.0000    0.0000 N   0  0  0  0  0  0  0  0  0  0  0  0
    0.3943    1.2135    0.0000 C   0  0  0  0  0  0  0  0  0  0  0  0
   -1.0323    0.7500    0.0000 C   0  0  0  0  0  0  0  0  0  0  0  0
   -1.0323   -0.7500    0.0000 C   0  0  0  0  0  0  0  0  0  0  0  0
    0.3943   -1.2135    0.0000 C   0  0  0  0  0  0  0  0  0  0  0  0
    0.8578   -2.6401    0.0000 C   0  0  0  0  0  0  0  0  0  0  0  0
    2.3250   -2.9520    0.0000 O   0  0  0  0  0  0  0  0  0  0  0  0
   -0.1459   -3.7548    0.0000 N   0  0  0  0  0  0  0  0  0  0  0  0
    0.3177   -5.1814    0.0000 C   0  0  0  0  0  0  0  0  0  0  0  0
   -0.6860   -6.2961    0.0000 C   0  0  0  0  0  0  0  0  0  0  0  0
   -0.2225   -7.7227    0.0000 C   0  0  0  0  0  0  0  0  0  0  0  0
   -1.2262   -8.8374    0.0000 C   0  0  0  0  0  0  0  0  0  0  0  0
    1.2447   -8.0346    0.0000 C   0  0  0  0  0  0  0  0  0  0  0  0
    1.7849   -5.4933    0.0000 C   0  0  0  0  0  0  0  0  0  0  0  0
    2.7886   -4.3786    0.0000 O   0  0  0  0  0  0  0  0  0  0  0  0
    2.2484   -6.9199    0.0000 N   0  0  0  0  0  0  0  0  0  0  0  0
    3.7156   -7.2317    0.0000 C   0  0  0  0  0  0  0  0  0  0  0  0
    4.1791   -8.6583    0.0000 C   0  0  0  0  0  0  0  0  0  0  0  0
    5.6464   -8.9702    0.0000 C   0  0  0  0  0  0  0  0  0  0  0  0
    7.1136   -9.2821    0.0000 C   0  0  0  0  0  0  0  0  0  0  0  0
    4.7193   -6.1170    0.0000 C   0  0  0  0  0  0  0  0  0  0  0  0
    4.2558   -4.6904    0.0000 O   0  0  0  0  0  0  0  0  0  0  0  0
    6.1865   -6.4289    0.0000 O   0  0  0  0  0  0  0  0  0  0  0  0
  2  1  1  1
  2  3  1  0
  3  4  1  0
  4  5  1  0
  4  6  1  0
  2  7  1  0
  7  8  2  0
  7  9  1  0
  9 10  1  0
 10 11  1  6
 11 12  1  0
 12 13  1  0
 12 14  1  0
 10 15  1  0
 15 16  2  0
 15 17  1  0
 17 18  1  0
 18 19  1  0
 19 20  1  0
 20 21  1  0
 21 22  1  6
 22 23  2  0
 22 24  1  0
 24 25  1  0
 25 26  1  6
 26 27  1  0
 27 28  1  0
 27 29  1  0
 25 30  1  0
 30 31  2  0
 30 32  1  0
 32 33  1  0
 33 34  1  6
 34 35  1  0
 35 36  3  0
 33 37  1  0
 37 38  2  0
 37 39  1  0
 21 17  1  0
M  END
$$$$

     RDKit          2D

 39 39  0  0  0  0  0  0  0  0999 V2000
    1.2760    5.1962    0.0000 N   0  0  0  0  0  0  0  0  0  0  0  0
    2.7760    5.1962    0.0000 C   0  0  0  0  0  0  0  0  0  0  0  0
    3.5260    6.4952    0.0000 C   0  0  0  0  0  0  0  0  0  0  0  0
    2.7760    7.7942    0.0000 C   0  0  0  0  0  0  0  0  0  0  0  0
    3.5260    9.0933    0.0000 C   0  0  0  0  0  0  0  0  0  0  0  0
    1.2760    7.7942    0.0000 C   0  0  0  0  0  0  0  0  0  0  0  0
    3.5260    3.8971    0.0000 C   0  0  0  0  0  0  0  0  0  0  0  0
    5.0260    3.8971    0.0000 O   0  0  0  0  0  0  0  0  0  0  0  0
    2.7760    2.5981    0.0000 N   0  0  0  0  0  0  0  0  0  0  0  0
    3.5260    1.2990    0.0000 C   0  0  0  0  0  0  0  0  0  0  0  0
    5.0260    1.2990    0.0000 C   0  0  0  0  0  0  0  0  0  0  0  0
    5.7760    0.0000    0.0000 C   0  0  0  0  0  0  0  0  0  0  0  0
    7.2760    0.0000    0.0000 C   0  0  0  0  0  0  0  0  0  0  0  0
    5.0260   -1.2990    0.0000 C   0  0  0  0  0  0  0  0  0  0  0  0
    2.7760    0.0000    0.0000 C   0  0  0  0  0  0  0  0  0  0  0  0
    3.5260   -1.2990    0.0000 O   0  0  0  0  0  0  0  0  0  0  0  0
    1.2760    0.0000    0.0000 N   0  0  0  0  0  0  0  0  0  0  0  0
    0.3943    1.2135    0.0000 C   0  0  0  0  0  0  0  0  0  0  0  0
   -1.0323    0.7500    0.0000 C   0  0  0  0  0  0  0  0  0  0  0  0
   -1.0323   -0.7500    0.0000 C   0  0  0  0  0  0  0  0  0  0  0  0
    0.3943   -1.2135    0.0000 C   0  0  0  0  0  0  0  0  0  0  0  0
    0.8578   -2.6401    0.0000 C   0  0  0  0  0  0  0  0  0  0  0  0
    2.3250   -2.9520    0.0000 O   0  0  0  0  0  0  0  0  0  0  0  0
   -0.1459   -3.7548    0.0000 N   0  0  0  0  0  0  0  0  0  0  0  0
    0.3177   -5.1814    0.0000 C   0  0  0  0  0  0  0  0  0  0  0  0
   -0.6860   -6.2961    0.0000 C   0  0  0  0  0  0  0  0  0  0  0  0
   -0.2225   -7.7227    0.0000 C   0  0  0  0  0  0  0  0  0  0  0  0
   -1.2262   -8.8374    0.0000 C   0  0  0  0  0  0  0  0  0  0  0  0
    1.2447   -8.0346    0.0000 C   0  0  0  0  0  0  0  0  0  0  0  0
    1.7849   -5.4933    0.0000 C   0  0  0  0  0  0  0  0  0  0  0  0
    2.7886   -4.3786    0.0000 O   0  0  0  0  0  0  0  0  0  0  0  0
    2.2484   -6.9199    0.0000 N   0  0  0  0  0  0  0  0  0  0  0  0
    3.7156   -7.2317    0.0000 C   0  0  0  0  0  0  0  0  0  0  0  0
    4.1791   -8.6583    0.0000 C   0  0  0  0  0  0  0  0  0  0  0  0
    5.6464   -8.9702    0.0000 C   0  0  0  0  0  0  0  0  0  0  0  0
    7.1136   -9.2821    0.0000 C   0  0  0  0  0  0  0  0  0  0  0  0
    4.7193   -6.1170    0.0000 C   0  0  0  0  0  0  0  0  0  0  0  0
    4.2558   -4.6904    0.0000 O   0  0  0  0  0  0  0  0  0  0  0  0
    6.1865   -6.4289    0.0000 O   0  0  0  0  0  0  0  0  0  0  0  0
  2  1  1  6
  2  3  1  0
  3  4  1  0
  4  5  1  0
  4  6  1  0
  2  7  1  0
  7  8  2  0
  7  9  1  0
  9 10  1  0
 10 11  1  6
 11 12  1  0
 12 13  1  0
 12 14  1  0
 10 15  1  0
 15 16  2  0
 15 17  1  0
 17 18  1  0
 18 19  1  0
 19 20  1  0
 20 21  1  0
 21 22  1  6
 22 23  2  0
 22 24  1  0
 24 25  1  0
 25 26  1  6
 26 27  1  0
 27 28  1  0
 27 29  1  0
 25 30  1  0
 30 31  2  0
 30 32  1  0
 32 33  1  0
 33 34  1  6
 34 35  1  0
 35 36  3  0
 33 37  1  0
 37 38  2  0
 37 39  1  0
 21 17  1  0
M  END
$$$$

     RDKit          2D

 40 40  0  0  0  0  0  0  0  0999 V2000
    1.2760    5.1962    0.0000 N   0  0  0  0  0  0  0  0  0  0  0  0
    0.5260    6.4952    0.0000 C   0  0  0  0  0  0  0  0  0  0  0  0
    2.7760    5.1962    0.0000 C   0  0  0  0  0  0  0  0  0  0  0  0
    3.5260    6.4952    0.0000 C   0  0  0  0  0  0  0  0  0  0  0  0
    2.7760    7.7942    0.0000 C   0  0  0  0  0  0  0  0  0  0  0  0
    3.5260    9.0933    0.0000 C   0  0  0  0  0  0  0  0  0  0  0  0
    1.2760    7.7942    0.0000 C   0  0  0  0  0  0  0  0  0  0  0  0
    3.5260    3.8971    0.0000 C   0  0  0  0  0  0  0  0  0  0  0  0
    5.0260    3.8971    0.0000 O   0  0  0  0  0  0  0  0  0  0  0  0
    2.7760    2.5981    0.0000 N   0  0  0  0  0  0  0  0  0  0  0  0
    3.5260    1.2990    0.0000 C   0  0  0  0  0  0  0  0  0  0  0  0
    5.0260    1.2990    0.0000 C   0  0  0  0  0  0  0  0  0  0  0  0
    5.7760    0.0000    0.0000 C   0  0  0  0  0  0  0  0  0  0  0  0
    7.2760    0.0000    0.0000 C   0  0  0  0  0  0  0  0  0  0  0  0
    5.0260   -1.2990    0.0000 C   0  0  0  0  0  0  0  0  0  0  0  0
    2.7760    0.0000    0.0000 C   0  0  0  0  0  0  0  0  0  0  0  0
    3.5260   -1.2990    0.0000 O   0  0  0  0  0  0  0  0  0  0  0  0
    1.2760    0.0000    0.0000 N   0  0  0  0  0  0  0  0  0  0  0  0
    0.3943    1.2135    0.0000 C   0  0  0  0  0  0  0  0  0  0  0  0
   -1.0323    0.7500    0.0000 C   0  0  0  0  0  0  0  0  0  0  0  0
   -1.0323   -0.7500    0.0000 C   0  0  0  0  0  0  0  0  0  0  0  0
    0.3943   -1.2135    0.0000 C   0  0  0  0  0  0  0  0  0  0  0  0
    0.8578   -2.6401    0.0000 C   0  0  0  0  0  0  0  0  0  0  0  0
    2.3250   -2.9520    0.0000 O   0  0  0  0  0  0  0  0  0  0  0  0
   -0.1459   -3.7548    0.0000 N   0  0  0  0  0  0  0  0  0  0  0  0
    0.3177   -5.1814    0.0000 C   0  0  0  0  0  0  0  0  0  0  0  0
   -0.6860   -6.2961    0.0000 C   0  0  0  0  0  0  0  0  0  0  0  0
   -0.2225   -7.7227    0.0000 C   0  0  0  0  0  0  0  0  0  0  0  0
   -1.2262   -8.8374    0.0000 C   0  0  0  0  0  0  0  0  0  0  0  0
    1.2447   -8.0346    0.0000 C   0  0  0  0  0  0  0  0  0  0  0  0
    1.7849   -5.4933    0.0000 C   0  0  0  0  0  0  0  0  0  0  0  0
    2.7886   -4.3786    0.0000 O   0  0  0  0  0  0  0  0  0  0  0  0
    2.2484   -6.9199    0.0000 N   0  0  0  0  0  0  0  0  0  0  0  0
    3.7156   -7.2317    0.0000 C   0  0  0  0  0  0  0  0  0  0  0  0
    4.1791   -8.6583    0.0000 C   0  0  0  0  0  0  0  0  0  0  0  0
    5.6464   -8.9702    0.0000 C   0  0  0  0  0  0  0  0  0  0  0  0
    7.1136   -9.2821    0.0000 C   0  0  0  0  0  0  0  0  0  0  0  0
    4.7193   -6.1170    0.0000 C   0  0  0  0  0  0  0  0  0  0  0  0
    4.2558   -4.6904    0.0000 O   0  0  0  0  0  0  0  0  0  0  0  0
    6.1865   -6.4289    0.0000 O   0  0  0  0  0  0  0  0  0  0  0  0
  1  2  1  0
  1  3  1  0
  3  4  1  1
  4  5  1  0
  5  6  1  0
  5  7  1  0
  3  8  1  0
  8  9  2  0
  8 10  1  0
 10 11  1  0
 11 12  1  6
 12 13  1  0
 13 14  1  0
 13 15  1  0
 11 16  1  0
 16 17  2  0
 16 18  1  0
 18 19  1  0
 19 20  1  0
 20 21  1  0
 21 22  1  0
 22 23  1  6
 23 24  2  0
 23 25  1  0
 25 26  1  0
 26 27  1  6
 27 28  1  0
 28 29  1  0
 28 30  1  0
 26 31  1  0
 31 32  2  0
 31 33  1  0
 33 34  1  0
 34 35  1  6
 35 36  1  0
 36 37  3  0
 34 38  1  0
 38 39  2  0
 38 40  1  0
 22 18  1  0
M  END
$$$$

     RDKit          2D

 40 40  0  0  0  0  0  0  0  0999 V2000
    1.2760    5.1962    0.0000 N   0  0  0  0  0  0  0  0  0  0  0  0
    0.5260    6.4952    0.0000 C   0  0  0  0  0  0  0  0  0  0  0  0
    2.7760    5.1962    0.0000 C   0  0  0  0  0  0  0  0  0  0  0  0
    3.5260    6.4952    0.0000 C   0  0  0  0  0  0  0  0  0  0  0  0
    2.7760    7.7942    0.0000 C   0  0  0  0  0  0  0  0  0  0  0  0
    3.5260    9.0933    0.0000 C   0  0  0  0  0  0  0  0  0  0  0  0
    1.2760    7.7942    0.0000 C   0  0  0  0  0  0  0  0  0  0  0  0
    3.5260    3.8971    0.0000 C   0  0  0  0  0  0  0  0  0  0  0  0
    5.0260    3.8971    0.0000 O   0  0  0  0  0  0  0  0  0  0  0  0
    2.7760    2.5981    0.0000 N   0  0  0  0  0  0  0  0  0  0  0  0
    3.5260    1.2990    0.0000 C   0  0  0  0  0  0  0  0  0  0  0  0
    5.0260    1.2990    0.0000 C   0  0  0  0  0  0  0  0  0  0  0  0
    5.7760    0.0000    0.0000 C   0  0  0  0  0  0  0  0  0  0  0  0
    7.2760    0.0000    0.0000 C   0  0  0  0  0  0  0  0  0  0  0  0
    5.0260   -1.2990    0.0000 C   0  0  0  0  0  0  0  0  0  0  0  0
    2.7760    0.0000    0.0000 C   0  0  0  0  0  0  0  0  0  0  0  0
    3.5260   -1.2990    0.0000 O   0  0  0  0  0  0  0  0  0  0  0  0
    1.2760    0.0000    0.0000 N   0  0  0  0  0  0  0  0  0  0  0  0
    0.3943    1.2135    0.0000 C   0  0  0  0  0  0  0  0  0  0  0  0
   -1.0323    0.7500    0.0000 C   0  0  0  0  0  0  0  0  0  0  0  0
   -1.0323   -0.7500    0.0000 C   0  0  0  0  0  0  0  0  0  0  0  0
    0.3943   -1.2135    0.0000 C   0  0  0  0  0  0  0  0  0  0  0  0
    0.8578   -2.6401    0.0000 C   0  0  0  0  0  0  0  0  0  0  0  0
    2.3250   -2.9520    0.0000 O   0  0  0  0  0  0  0  0  0  0  0  0
   -0.1459   -3.7548    0.0000 N   0  0  0  0  0  0  0  0  0  0  0  0
    0.3177   -5.1814    0.0000 C   0  0  0  0  0  0  0  0  0  0  0  0
   -0.6860   -6.2961    0.0000 C   0  0  0  0  0  0  0  0  0  0  0  0
   -0.2225   -7.7227    0.0000 C   0  0  0  0  0  0  0  0  0  0  0  0
   -1.2262   -8.8374    0.0000 C   0  0  0  0  0  0  0  0  0  0  0  0
    1.2447   -8.0346    0.0000 C   0  0  0  0  0  0  0  0  0  0  0  0
    1.7849   -5.4933    0.0000 C   0  0  0  0  0  0  0  0  0  0  0  0
    2.7886   -4.3786    0.0000 O   0  0  0  0  0  0  0  0  0  0  0  0
    2.2484   -6.9199    0.0000 N   0  0  0  0  0  0  0  0  0  0  0  0
    3.7156   -7.2317    0.0000 C   0  0  0  0  0  0  0  0  0  0  0  0
    4.1791   -8.6583    0.0000 C   0  0  0  0  0  0  0  0  0  0  0  0
    5.6464   -8.9702    0.0000 C   0  0  0  0  0  0  0  0  0  0  0  0
    7.1136   -9.2821    0.0000 C   0  0  0  0  0  0  0  0  0  0  0  0
    4.7193   -6.1170    0.0000 C   0  0  0  0  0  0  0  0  0  0  0  0
    4.2558   -4.6904    0.0000 O   0  0  0  0  0  0  0  0  0  0  0  0
    6.1865   -6.4289    0.0000 O   0  0  0  0  0  0  0  0  0  0  0  0
  1  2  1  0
  1  3  1  0
  3  4  1  6
  4  5  1  0
  5  6  1  0
  5  7  1  0
  3  8  1  0
  8  9  2  0
  8 10  1  0
 10 11  1  0
 11 12  1  6
 12 13  1  0
 13 14  1  0
 13 15  1  0
 11 16  1  0
 16 17  2  0
 16 18  1  0
 18 19  1  0
 19 20  1  0
 20 21  1  0
 21 22  1  0
 22 23  1  6
 23 24  2  0
 23 25  1  0
 25 26  1  0
 26 27  1  6
 27 28  1  0
 28 29  1  0
 28 30  1  0
 26 31  1  0
 31 32  2  0
 31 33  1  0
 33 34  1  0
 34 35  1  6
 35 36  1  0
 36 37  3  0
 34 38  1  0
 38 39  2  0
 38 40  1  0
 22 18  1  0
M  END
$$$$

     RDKit          2D

 40 40  0  0  0  0  0  0  0  0999 V2000
    8.0260    1.2990    0.0000 N   0  0  0  0  0  0  0  0  0  0  0  0
    7.2760    0.0000    0.0000 C   0  0  0  0  0  0  0  0  0  0  0  0
    8.0260   -1.2990    0.0000 C   0  0  0  0  0  0  0  0  0  0  0  0
    9.5260   -1.2990    0.0000 C   0  0  0  0  0  0  0  0  0  0  0  0
   10.2760   -2.5981    0.0000 C   0  0  0  0  0  0  0  0  0  0  0  0
   10.2760    0.0000    0.0000 C   0  0  0  0  0  0  0  0  0  0  0  0
    5.7760    0.0000    0.0000 C   0  0  0  0  0  0  0  0  0  0  0  0
    5.0260   -1.2990    0.0000 O   0  0  0  0  0  0  0  0  0  0  0  0
    5.0260    1.2990    0.0000 N   0  0  0  0  0  0  0  0  0  0  0  0
    5.7760    2.5981    0.0000 C   0  0  0  0  0  0  0  0  0  0  0  0
    3.5260    1.2990    0.0000 C   0  0  0  0  0  0  0  0  0  0  0  0
    2.7760    2.5981    0.0000 C   0  0  0  0  0  0  0  0  0  0  0  0
    3.5260    3.8971    0.0000 C   0  0  0  0  0  0  0  0  0  0  0  0
    2.7760    5.1962    0.0000 C   0  0  0  0  0  0  0  0  0  0  0  0
    5.0260    3.8971    0.0000 C   0  0  0  0  0  0  0  0  0  0  0  0
    2.7760    0.0000    0.0000 C   0  0  0  0  0  0  0  0  0  0  0  0
    3.5260   -1.2990    0.0000 O   0  0  0  0  0  0  0  0  0  0  0  0
    1.2760    0.0000    0.0000 N   0  0  0  0  0  0  0  0  0  0  0  0
    0.3943    1.2135    0.0000 C   0  0  0  0  0  0  0  0  0  0  0  0
   -1.0323    0.7500    0.0000 C   0  0  0  0  0  0  0  0  0  0  0  0
   -1.0323   -0.7500    0.0000 C   0  0  0  0  0  0  0  0  0  0  0  0
    0.3943   -1.2135    0.0000 C   0  0  0  0  0  0  0  0  0  0  0  0
    0.8578   -2.6401    0.0000 C   0  0  0  0  0  0  0  0  0  0  0  0
    2.3250   -2.9520    0.0000 O   0  0  0  0  0  0  0  0  0  0  0  0
   -0.1459   -3.7548    0.0000 N   0  0  0  0  0  0  0  0  0  0  0  0
    0.3177   -5.1814    0.0000 C   0  0  0  0  0  0  0  0  0  0  0  0
   -0.6860   -6.2961    0.0000 C   0  0  0  0  0  0  0  0  0  0  0  0
   -0.2225   -7.7227    0.0000 C   0  0  0  0  0  0  0  0  0  0  0  0
   -1.2262   -8.8374    0.0000 C   0  0  0  0  0  0  0  0  0  0  0  0
    1.2447   -8.0346    0.0000 C   0  0  0  0  0  0  0  0  0  0  0  0
    1.7849   -5.4933    0.0000 C   0  0  0  0  0  0  0  0  0  0  0  0
    2.7886   -4.3786    0.0000 O   0  0  0  0  0  0  0  0  0  0  0  0
    2.2484   -6.9199    0.0000 N   0  0  0  0  0  0  0  0  0  0  0  0
    3.7156   -7.2317    0.0000 C   0  0  0  0  0  0  0  0  0  0  0  0
    4.1791   -8.6583    0.0000 C   0  0  0  0  0  0  0  0  0  0  0  0
    5.6464   -8.9702    0.0000 C   0  0  0  0  0  0  0  0  0  0  0  0
    7.1136   -9.2821    0.0000 C   0  0  0  0  0  0  0  0  0  0  0  0
    4.7193   -6.1170    0.0000 C   0  0  0  0  0  0  0  0  0  0  0  0
    4.2558   -4.6904    0.0000 O   0  0  0  0  0  0  0  0  0  0  0  0
    6.1865   -6.4289    0.0000 O   0  0  0  0  0  0  0  0  0  0  0  0
  2  1  1  1
  2  3  1  0
  3  4  1  0
  4  5  1  0
  4  6  1  0
  2  7  1  0
  7  8  2  0
  7  9  1  0
  9 10  1  0
  9 11  1  0
 11 12  1  6
 12 13  1  0
 13 14  1  0
 13 15  1  0
 11 16  1  0
 16 17  2  0
 16 18  1  0
 18 19  1  0
 19 20  1  0
 20 21  1  0
 21 22  1  0
 22 23  1  6
 23 24  2  0
 23 25  1  0
 25 26  1  0
 26 27  1  6
 27 28  1  0
 28 29  1  0
 28 30  1  0
 26 31  1  0
 31 32  2  0
 31 33  1  0
 33 34  1  0
 34 35  1  6
 35 36  1  0
 36 37  3  0
 34 38  1  0
 38 39  2  0
 38 40  1  0
 22 18  1  0
M  END
$$$$

     RDKit          2D

 40 40  0  0  0  0  0  0  0  0999 V2000
    8.0260    1.2990    0.0000 N   0  0  0  0  0  0  0  0  0  0  0  0
    7.2760    0.0000    0.0000 C   0  0  0  0  0  0  0  0  0  0  0  0
    8.0260   -1.2990    0.0000 C   0  0  0  0  0  0  0  0  0  0  0  0
    9.5260   -1.2990    0.0000 C   0  0  0  0  0  0  0  0  0  0  0  0
   10.2760   -2.5981    0.0000 C   0  0  0  0  0  0  0  0  0  0  0  0
   10.2760    0.0000    0.0000 C   0  0  0  0  0  0  0  0  0  0  0  0
    5.7760    0.0000    0.0000 C   0  0  0  0  0  0  0  0  0  0  0  0
    5.0260   -1.2990    0.0000 O   0  0  0  0  0  0  0  0  0  0  0  0
    5.0260    1.2990    0.0000 N   0  0  0  0  0  0  0  0  0  0  0  0
    5.7760    2.5981    0.0000 C   0  0  0  0  0  0  0  0  0  0  0  0
    3.5260    1.2990    0.0000 C   0  0  0  0  0  0  0  0  0  0  0  0
    2.7760    2.5981    0.0000 C   0  0  0  0  0  0  0  0  0  0  0  0
    3.5260    3.8971    0.0000 C   0  0  0  0  0  0  0  0  0  0  0  0
    2.7760    5.1962    0.0000 C   0  0  0  0  0  0  0  0  0  0  0  0
    5.0260    3.8971    0.0000 C   0  0  0  0  0  0  0  0  0  0  0  0
    2.7760    0.0000    0.0000 C   0  0  0  0  0  0  0  0  0  0  0  0
    3.5260   -1.2990    0.0000 O   0  0  0  0  0  0  0  0  0  0  0  0
    1.2760    0.0000    0.0000 N   0  0  0  0  0  0  0  0  0  0  0  0
    0.3943    1.2135    0.0000 C   0  0  0  0  0  0  0  0  0  0  0  0
   -1.0323    0.7500    0.0000 C   0  0  0  0  0  0  0  0  0  0  0  0
   -1.0323   -0.7500    0.0000 C   0  0  0  0  0  0  0  0  0  0  0  0
    0.3943   -1.2135    0.0000 C   0  0  0  0  0  0  0  0  0  0  0  0
    0.8578   -2.6401    0.0000 C   0  0  0  0  0  0  0  0  0  0  0  0
    2.3250   -2.9520    0.0000 O   0  0  0  0  0  0  0  0  0  0  0  0
   -0.1459   -3.7548    0.0000 N   0  0  0  0  0  0  0  0  0  0  0  0
    0.3177   -5.1814    0.0000 C   0  0  0  0  0  0  0  0  0  0  0  0
   -0.6860   -6.2961    0.0000 C   0  0  0  0  0  0  0  0  0  0  0  0
   -0.2225   -7.7227    0.0000 C   0  0  0  0  0  0  0  0  0  0  0  0
   -1.2262   -8.8374    0.0000 C   0  0  0  0  0  0  0  0  0  0  0  0
    1.2447   -8.0346    0.0000 C   0  0  0  0  0  0  0  0  0  0  0  0
    1.7849   -5.4933    0.0000 C   0  0  0  0  0  0  0  0  0  0  0  0
    2.7886   -4.3786    0.0000 O   0  0  0  0  0  0  0  0  0  0  0  0
    2.2484   -6.9199    0.0000 N   0  0  0  0  0  0  0  0  0  0  0  0
    3.7156   -7.2317    0.0000 C   0  0  0  0  0  0  0  0  0  0  0  0
    4.1791   -8.6583    0.0000 C   0  0  0  0  0  0  0  0  0  0  0  0
    5.6464   -8.9702    0.0000 C   0  0  0  0  0  0  0  0  0  0  0  0
    7.1136   -9.2821    0.0000 C   0  0  0  0  0  0  0  0  0  0  0  0
    4.7193   -6.1170    0.0000 C   0  0  0  0  0  0  0  0  0  0  0  0
    4.2558   -4.6904    0.0000 O   0  0  0  0  0  0  0  0  0  0  0  0
    6.1865   -6.4289    0.0000 O   0  0  0  0  0  0  0  0  0  0  0  0
  2  1  1  6
  2  3  1  0
  3  4  1  0
  4  5  1  0
  4  6  1  0
  2  7  1  0
  7  8  2  0
  7  9  1  0
  9 10  1  0
  9 11  1  0
 11 12  1  6
 12 13  1  0
 13 14  1  0
 13 15  1  0
 11 16  1  0
 16 17  2  0
 16 18  1  0
 18 19  1  0
 19 20  1  0
 20 21  1  0
 21 22  1  0
 22 23  1  6
 23 24  2  0
 23 25  1  0
 25 26  1  0
 26 27  1  6
 27 28  1  0
 28 29  1  0
 28 30  1  0
 26 31  1  0
 31 32  2  0
 31 33  1  0
 33 34  1  0
 34 35  1  6
 35 36  1  0
 36 37  3  0
 34 38  1  0
 38 39  2  0
 38 40  1  0
 22 18  1  0
M  END
$$$$

     RDKit          2D

 24 23  0  0  0  0  0  0  0  0999 V2000
    3.8971    2.2500    0.0000 N   0  0  0  0  0  0  0  0  0  0  0  0
    2.5981    3.0000    0.0000 C   0  0  0  0  0  0  0  0  0  0  0  0
    1.2990    2.2500    0.0000 C   0  0  0  0  0  0  0  0  0  0  0  0
    1.2990    0.7500    0.0000 C   0  0  0  0  0  0  0  0  0  0  0  0
    0.0000    0.0000    0.0000 C   0  0  0  0  0  0  0  0  0  0  0  0
    2.5981   -0.0000    0.0000 C   0  0  0  0  0  0  0  0  0  0  0  0
    2.5981    4.5000    0.0000 C   0  0  0  0  0  0  0  0  0  0  0  0
    1.2990    5.2500    0.0000 O   0  0  0  0  0  0  0  0  0  0  0  0
    3.8971    5.2500    0.0000 N   0  0  0  0  0  0  0  0  0  0  0  0
    3.8971    6.7500    0.0000 C   0  0  0  0  0  0  0  0  0  0  0  0
    5.1962    7.5000    0.0000 C   0  0  0  0  0  0  0  0  0  0  0  0
    5.1962    9.0000    0.0000 C   0  0  0  0  0  0  0  0  0  0  0  0
    6.4952    9.7500    0.0000 C   0  0  0  0  0  0  0  0  0  0  0  0
    3.8971    9.7500    0.0000 C   0  0  0  0  0  0  0  0  0  0  0  0
    2.5981    7.5000    0.0000 C   0  0  0  0  0  0  0  0  0  0  0  0
    1.2990    6.7500    0.0000 O   0  0  0  0  0  0  0  0  0  0  0  0
    2.5981    9.0000    0.0000 N   0  0  0  0  0  0  0  0  0  0  0  0
    1.2990    9.7500    0.0000 C   0  0  0  0  0  0  0  0  0  0  0  0
    1.2990   11.2500    0.0000 C   0  0  0  0  0  0  0  0  0  0  0  0
    0.0000   12.0000    0.0000 C   0  0  0  0  0  0  0  0  0  0  0  0
   -1.2990   12.7500    0.0000 C   0  0  0  0  0  0  0  0  0  0  0  0
    0.0000    9.0000    0.0000 C   0  0  0  0  0  0  0  0  0  0  0  0
    0.0000    7.5000    0.0000 O   0  0  0  0  0  0  0  0  0  0  0  0
   -1.2990    9.7500    0.0000 O   0  0  0  0  0  0  0  0  0  0  0  0
  2  1  1  1
  2  3  1  0
  3  4  1  0
  4  5  1  0
  4  6  1  0
  2  7  1  0
  7  8  2  0
  7  9  1  0
  9 10  1  0
 10 11  1  1
 11 12  1  0
 12 13  1  0
 12 14  1  0
 10 15  1  0
 15 16  2  0
 15 17  1  0
 17 18  1  0
 18 19  1  6
 19 20  1  0
 20 21  3  0
 18 22  1  0
 22 23  2  0
 22 24  1  0
M  END
$$$$

     RDKit          2D

 24 23  0  0  0  0  0  0  0  0999 V2000
    3.8971    2.2500    0.0000 N   0  0  0  0  0  0  0  0  0  0  0  0
    2.5981    3.0000    0.0000 C   0  0  0  0  0  0  0  0  0  0  0  0
    1.2990    2.2500    0.0000 C   0  0  0  0  0  0  0  0  0  0  0  0
    1.2990    0.7500    0.0000 C   0  0  0  0  0  0  0  0  0  0  0  0
    0.0000    0.0000    0.0000 C   0  0  0  0  0  0  0  0  0  0  0  0
    2.5981   -0.0000    0.0000 C   0  0  0  0  0  0  0  0  0  0  0  0
    2.5981    4.5000    0.0000 C   0  0  0  0  0  0  0  0  0  0  0  0
    1.2990    5.2500    0.0000 O   0  0  0  0  0  0  0  0  0  0  0  0
    3.8971    5.2500    0.0000 N   0  0  0  0  0  0  0  0  0  0  0  0
    3.8971    6.7500    0.0000 C   0  0  0  0  0  0  0  0  0  0  0  0
    5.1962    7.5000    0.0000 C   0  0  0  0  0  0  0  0  0  0  0  0
    5.1962    9.0000    0.0000 C   0  0  0  0  0  0  0  0  0  0  0  0
    6.4952    9.7500    0.0000 C   0  0  0  0  0  0  0  0  0  0  0  0
    3.8971    9.7500    0.0000 C   0  0  0  0  0  0  0  0  0  0  0  0
    2.5981    7.5000    0.0000 C   0  0  0  0  0  0  0  0  0  0  0  0
    1.2990    6.7500    0.0000 O   0  0  0  0  0  0  0  0  0  0  0  0
    2.5981    9.0000    0.0000 N   0  0  0  0  0  0  0  0  0  0  0  0
    1.2990    9.7500    0.0000 C   0  0  0  0  0  0  0  0  0  0  0  0
    1.2990   11.2500    0.0000 C   0  0  0  0  0  0  0  0  0  0  0  0
    0.0000   12.0000    0.0000 C   0  0  0  0  0  0  0  0  0  0  0  0
   -1.2990   12.7500    0.0000 C   0  0  0  0  0  0  0  0  0  0  0  0
    0.0000    9.0000    0.0000 C   0  0  0  0  0  0  0  0  0  0  0  0
    0.0000    7.5000    0.0000 O   0  0  0  0  0  0  0  0  0  0  0  0
   -1.2990    9.7500    0.0000 O   0  0  0  0  0  0  0  0  0  0  0  0
  2  1  1  6
  2  3  1  0
  3  4  1  0
  4  5  1  0
  4  6  1  0
  2  7  1  0
  7  8  2  0
  7  9  1  0
  9 10  1  0
 10 11  1  1
 11 12  1  0
 12 13  1  0
 12 14  1  0
 10 15  1  0
 15 16  2  0
 15 17  1  0
 17 18  1  0
 18 19  1  6
 19 20  1  0
 20 21  3  0
 18 22  1  0
 22 23  2  0
 22 24  1  0
M  END
$$$$

     RDKit          2D

 23 22  0  0  0  0  0  0  0  0999 V2000
    0.0000    3.0000    0.0000 N   0  0  0  0  0  0  0  0  0  0  0  0
    1.2990    2.2500    0.0000 C   0  0  0  0  0  0  0  0  0  0  0  0
    1.2990    0.7500    0.0000 C   0  0  0  0  0  0  0  0  0  0  0  0
    0.0000    0.0000    0.0000 C   0  0  0  0  0  0  0  0  0  0  0  0
    2.5981   -0.0000    0.0000 C   0  0  0  0  0  0  0  0  0  0  0  0
    2.5981    3.0000    0.0000 C   0  0  0  0  0  0  0  0  0  0  0  0
    3.8971    2.2500    0.0000 O   0  0  0  0  0  0  0  0  0  0  0  0
    2.5981    4.5000    0.0000 N   0  0  0  0  0  0  0  0  0  0  0  0
    3.8971    5.2500    0.0000 C   0  0  0  0  0  0  0  0  0  0  0  0
    3.8971    6.7500    0.0000 C   0  0  0  0  0  0  0  0  0  0  0  0
    5.1962    7.5000    0.0000 C   0  0  0  0  0  0  0  0  0  0  0  0
    5.1962    9.0000    0.0000 C   0  0  0  0  0  0  0  0  0  0  0  0
    6.4952    6.7500    0.0000 C   0  0  0  0  0  0  0  0  0  0  0  0
    5.1962    4.5000    0.0000 C   0  0  0  0  0  0  0  0  0  0  0  0
    5.1962    3.0000    0.0000 O   0  0  0  0  0  0  0  0  0  0  0  0
    6.4952    5.2500    0.0000 N   0  0  0  0  0  0  0  0  0  0  0  0
    7.7942    4.5000    0.0000 C   0  0  0  0  0  0  0  0  0  0  0  0
    9.0933    5.2500    0.0000 C   0  0  0  0  0  0  0  0  0  0  0  0
   10.3923    4.5000    0.0000 C   0  0  0  0  0  0  0  0  0  0  0  0
   11.6913    3.7500    0.0000 C   0  0  0  0  0  0  0  0  0  0  0  0
    7.7942    3.0000    0.0000 C   0  0  0  0  0  0  0  0  0  0  0  0
    6.4952    2.2500    0.0000 O   0  0  0  0  0  0  0  0  0  0  0  0
    9.0933    2.2500    0.0000 O   0  0  0  0  0  0  0  0  0  0  0  0
  2  1  1  6
  2  3  1  0
  3  4  1  0
  3  5  1  0
  2  6  1  0
  6  7  2  0
  6  8  1  0
  8  9  1  0
  9 10  1  6
 10 11  1  0
 11 12  1  0
 11 13  1  0
  9 14  1  0
 14 15  2  0
 14 16  1  0
 16 17  1  0
 17 18  1  1
 18 19  1  0
 19 20  3  0
 17 21  1  0
 21 22  2  0
 21 23  1  0
M  END
$$$$

     RDKit          2D

 23 22  0  0  0  0  0  0  0  0999 V2000
    0.0000    3.0000    0.0000 N   0  0  0  0  0  0  0  0  0  0  0  0
    1.2990    2.2500    0.0000 C   0  0  0  0  0  0  0  0  0  0  0  0
    1.2990    0.7500    0.0000 C   0  0  0  0  0  0  0  0  0  0  0  0
    0.0000    0.0000    0.0000 C   0  0  0  0  0  0  0  0  0  0  0  0
    2.5981   -0.0000    0.0000 C   0  0  0  0  0  0  0  0  0  0  0  0
    2.5981    3.0000    0.0000 C   0  0  0  0  0  0  0  0  0  0  0  0
    3.8971    2.2500    0.0000 O   0  0  0  0  0  0  0  0  0  0  0  0
    2.5981    4.5000    0.0000 N   0  0  0  0  0  0  0  0  0  0  0  0
    3.8971    5.2500    0.0000 C   0  0  0  0  0  0  0  0  0  0  0  0
    3.8971    6.7500    0.0000 C   0  0  0  0  0  0  0  0  0  0  0  0
    5.1962    7.5000    0.0000 C   0  0  0  0  0  0  0  0  0  0  0  0
    5.1962    9.0000    0.0000 C   0  0  0  0  0  0  0  0  0  0  0  0
    6.4952    6.7500    0.0000 C   0  0  0  0  0  0  0  0  0  0  0  0
    5.1962    4.5000    0.0000 C   0  0  0  0  0  0  0  0  0  0  0  0
    5.1962    3.0000    0.0000 O   0  0  0  0  0  0  0  0  0  0  0  0
    6.4952    5.2500    0.0000 N   0  0  0  0  0  0  0  0  0  0  0  0
    7.7942    4.5000    0.0000 C   0  0  0  0  0  0  0  0  0  0  0  0
    9.0933    5.2500    0.0000 C   0  0  0  0  0  0  0  0  0  0  0  0
   10.3923    4.5000    0.0000 C   0  0  0  0  0  0  0  0  0  0  0  0
   11.6913    3.7500    0.0000 C   0  0  0  0  0  0  0  0  0  0  0  0
    7.7942    3.0000    0.0000 C   0  0  0  0  0  0  0  0  0  0  0  0
    6.4952    2.2500    0.0000 O   0  0  0  0  0  0  0  0  0  0  0  0
    9.0933    2.2500    0.0000 O   0  0  0  0  0  0  0  0  0  0  0  0
  2  1  1  1
  2  3  1  0
  3  4  1  0
  3  5  1  0
  2  6  1  0
  6  7  2  0
  6  8  1  0
  8  9  1  0
  9 10  1  6
 10 11  1  0
 11 12  1  0
 11 13  1  0
  9 14  1  0
 14 15  2  0
 14 16  1  0
 16 17  1  0
 17 18  1  1
 18 19  1  0
 19 20  3  0
 17 21  1  0
 21 22  2  0
 21 23  1  0
M  END
$$$$

     RDKit          2D

 25 24  0  0  0  0  0  0  0  0999 V2000
    1.2990    0.7500    0.0000 N   0  0  0  0  0  0  0  0  0  0  0  0
    0.0000    0.0000    0.0000 C   0  0  0  0  0  0  0  0  0  0  0  0
    2.5981   -0.0000    0.0000 C   0  0  0  0  0  0  0  0  0  0  0  0
    3.8971    0.7500    0.0000 C   0  0  0  0  0  0  0  0  0  0  0  0
    5.1962   -0.0000    0.0000 C   0  0  0  0  0  0  0  0  0  0  0  0
    6.4952    0.7500    0.0000 C   0  0  0  0  0  0  0  0  0  0  0  0
    5.1962   -1.5000    0.0000 C   0  0  0  0  0  0  0  0  0  0  0  0
    2.5981   -1.5000    0.0000 C   0  0  0  0  0  0  0  0  0  0  0  0
    1.2990   -2.2500    0.0000 O   0  0  0  0  0  0  0  0  0  0  0  0
    3.8971   -2.2500    0.0000 N   0  0  0  0  0  0  0  0  0  0  0  0
    3.8971   -3.7500    0.0000 C   0  0  0  0  0  0  0  0  0  0  0  0
    5.1962   -4.5000    0.0000 C   0  0  0  0  0  0  0  0  0  0  0  0
    5.1962   -6.0000    0.0000 C   0  0  0  0  0  0  0  0  0  0  0  0
    6.4952   -6.7500    0.0000 C   0  0  0  0  0  0  0  0  0  0  0  0
    3.8971   -6.7500    0.0000 C   0  0  0  0  0  0  0  0  0  0  0  0
    2.5981   -4.5000    0.0000 C   0  0  0  0  0  0  0  0  0  0  0  0
    1.2990   -3.7500    0.0000 O   0  0  0  0  0  0  0  0  0  0  0  0
    2.5981   -6.0000    0.0000 N   0  0  0  0  0  0  0  0  0  0  0  0
    1.2990   -6.7500    0.0000 C   0  0  0  0  0  0  0  0  0  0  0  0
    1.2990   -8.2500    0.0000 C   0  0  0  0  0  0  0  0  0  0  0  0
    0.0000   -9.0000    0.0000 C   0  0  0  0  0  0  0  0  0  0  0  0
   -1.2990   -9.7500    0.0000 C   0  0  0  0  0  0  0  0  0  0  0  0
    0.0000   -6.0000    0.0000 C   0  0  0  0  0  0  0  0  0  0  0  0
    0.0000   -4.5000    0.0000 O   0  0  0  0  0  0  0  0  0  0  0  0
   -1.2990   -6.7500    0.0000 O   0  0  0  0  0  0  0  0  0  0  0  0
  1  2  1  0
  1  3  1  0
  3  4  1  1
  4  5  1  0
  5  6  1  0
  5  7  1  0
  3  8  1  0
  8  9  2  0
  8 10  1  0
 10 11  1  0
 11 12  1  6
 12 13  1  0
 13 14  1  0
 13 15  1  0
 11 16  1  0
 16 17  2  0
 16 18  1  0
 18 19  1  0
 19 20  1  1
 20 21  1  0
 21 22  3  0
 19 23  1  0
 23 24  2  0
 23 25  1  0
M  END
$$$$

     RDKit          2D

 25 24  0  0  0  0  0  0  0  0999 V2000
    1.2990    0.7500    0.0000 N   0  0  0  0  0  0  0  0  0  0  0  0
    0.0000    0.0000    0.0000 C   0  0  0  0  0  0  0  0  0  0  0  0
    2.5981   -0.0000    0.0000 C   0  0  0  0  0  0  0  0  0  0  0  0
    3.8971    0.7500    0.0000 C   0  0  0  0  0  0  0  0  0  0  0  0
    5.1962   -0.0000    0.0000 C   0  0  0  0  0  0  0  0  0  0  0  0
    6.4952    0.7500    0.0000 C   0  0  0  0  0  0  0  0  0  0  0  0
    5.1962   -1.5000    0.0000 C   0  0  0  0  0  0  0  0  0  0  0  0
    2.5981   -1.5000    0.0000 C   0  0  0  0  0  0  0  0  0  0  0  0
    1.2990   -2.2500    0.0000 O   0  0  0  0  0  0  0  0  0  0  0  0
    3.8971   -2.2500    0.0000 N   0  0  0  0  0  0  0  0  0  0  0  0
    3.8971   -3.7500    0.0000 C   0  0  0  0  0  0  0  0  0  0  0  0
    5.1962   -4.5000    0.0000 C   0  0  0  0  0  0  0  0  0  0  0  0
    5.1962   -6.0000    0.0000 C   0  0  0  0  0  0  0  0  0  0  0  0
    6.4952   -6.7500    0.0000 C   0  0  0  0  0  0  0  0  0  0  0  0
    3.8971   -6.7500    0.0000 C   0  0  0  0  0  0  0  0  0  0  0  0
    2.5981   -4.5000    0.0000 C   0  0  0  0  0  0  0  0  0  0  0  0
    1.2990   -3.7500    0.0000 O   0  0  0  0  0  0  0  0  0  0  0  0
    2.5981   -6.0000    0.0000 N   0  0  0  0  0  0  0  0  0  0  0  0
    1.2990   -6.7500    0.0000 C   0  0  0  0  0  0  0  0  0  0  0  0
    1.2990   -8.2500    0.0000 C   0  0  0  0  0  0  0  0  0  0  0  0
    0.0000   -9.0000    0.0000 C   0  0  0  0  0  0  0  0  0  0  0  0
   -1.2990   -9.7500    0.0000 C   0  0  0  0  0  0  0  0  0  0  0  0
    0.0000   -6.0000    0.0000 C   0  0  0  0  0  0  0  0  0  0  0  0
    0.0000   -4.5000    0.0000 O   0  0  0  0  0  0  0  0  0  0  0  0
   -1.2990   -6.7500    0.0000 O   0  0  0  0  0  0  0  0  0  0  0  0
  1  2  1  0
  1  3  1  0
  3  4  1  6
  4  5  1  0
  5  6  1  0
  5  7  1  0
  3  8  1  0
  8  9  2  0
  8 10  1  0
 10 11  1  0
 11 12  1  6
 12 13  1  0
 13 14  1  0
 13 15  1  0
 11 16  1  0
 16 17  2  0
 16 18  1  0
 18 19  1  0
 19 20  1  1
 20 21  1  0
 21 22  3  0
 19 23  1  0
 23 24  2  0
 23 25  1  0
M  END
$$$$

     RDKit          2D

 27 27  0  0  0  0  0  0  0  0999 V2000
    3.0000   -2.5981    0.0000 N   0  0  0  0  0  0  0  0  0  0  0  0
    3.7500   -1.2990    0.0000 C   0  0  0  0  0  0  0  0  0  0  0  0
    3.0000    0.0000    0.0000 C   0  0  0  0  0  0  0  0  0  0  0  0
    1.5000    0.0000    0.0000 C   0  0  0  0  0  0  0  0  0  0  0  0
    0.7500   -1.2990    0.0000 C   0  0  0  0  0  0  0  0  0  0  0  0
   -0.7500   -1.2990    0.0000 C   0  0  0  0  0  0  0  0  0  0  0  0
   -1.5000    0.0000    0.0000 C   0  0  0  0  0  0  0  0  0  0  0  0
   -0.7500    1.2990    0.0000 C   0  0  0  0  0  0  0  0  0  0  0  0
    0.7500    1.2990    0.0000 C   0  0  0  0  0  0  0  0  0  0  0  0
    5.2500   -1.2990    0.0000 C   0  0  0  0  0  0  0  0  0  0  0  0
    6.0000    0.0000    0.0000 O   0  0  0  0  0  0  0  0  0  0  0  0
    6.0000   -2.5981    0.0000 N   0  0  0  0  0  0  0  0  0  0  0  0
    7.5000   -2.5981    0.0000 C   0  0  0  0  0  0  0  0  0  0  0  0
    8.2500   -3.8971    0.0000 C   0  0  0  0  0  0  0  0  0  0  0  0
    9.7500   -3.8971    0.0000 C   0  0  0  0  0  0  0  0  0  0  0  0
   10.5000   -5.1962    0.0000 C   0  0  0  0  0  0  0  0  0  0  0  0
   10.5000   -2.5981    0.0000 C   0  0  0  0  0  0  0  0  0  0  0  0
    8.2500   -1.2990    0.0000 C   0  0  0  0  0  0  0  0  0  0  0  0
    7.5000    0.0000    0.0000 O   0  0  0  0  0  0  0  0  0  0  0  0
    9.7500   -1.2990    0.0000 N   0  0  0  0  0  0  0  0  0  0  0  0
   10.5000    0.0000    0.0000 C   0  0  0  0  0  0  0  0  0  0  0  0
   12.0000    0.0000    0.0000 C   0  0  0  0  0  0  0  0  0  0  0  0
   12.7500    1.2990    0.0000 C   0  0  0  0  0  0  0  0  0  0  0  0
   13.5000    2.5981    0.0000 C   0  0  0  0  0  0  0  0  0  0  0  0
    9.7500    1.2990    0.0000 C   0  0  0  0  0  0  0  0  0  0  0  0
    8.2500    1.2990    0.0000 O   0  0  0  0  0  0  0  0  0  0  0  0
   10.5000    2.5981    0.0000 O   0  0  0  0  0  0  0  0  0  0  0  0
  2  1  1  1
  2  3  1  0
  3  4  1  0
  4  5  2  0
  5  6  1  0
  6  7  2  0
  7  8  1  0
  8  9  2  0
  2 10  1  0
 10 11  2  0
 10 12  1  0
 12 13  1  0
 13 14  1  1
 14 15  1  0
 15 16  1  0
 15 17  1  0
 13 18  1  0
 18 19  2  0
 18 20  1  0
 20 21  1  0
 21 22  1  6
 22 23  1  0
 23 24  3  0
 21 25  1  0
 25 26  2  0
 25 27  1  0
  9  4  1  0
M  END
$$$$

     RDKit          2D

 27 27  0  0  0  0  0  0  0  0999 V2000
    3.0000   -2.5981    0.0000 N   0  0  0  0  0  0  0  0  0  0  0  0
    3.7500   -1.2990    0.0000 C   0  0  0  0  0  0  0  0  0  0  0  0
    3.0000    0.0000    0.0000 C   0  0  0  0  0  0  0  0  0  0  0  0
    1.5000    0.0000    0.0000 C   0  0  0  0  0  0  0  0  0  0  0  0
    0.7500   -1.2990    0.0000 C   0  0  0  0  0  0  0  0  0  0  0  0
   -0.7500   -1.2990    0.0000 C   0  0  0  0  0  0  0  0  0  0  0  0
   -1.5000    0.0000    0.0000 C   0  0  0  0  0  0  0  0  0  0  0  0
   -0.7500    1.2990    0.0000 C   0  0  0  0  0  0  0  0  0  0  0  0
    0.7500    1.2990    0.0000 C   0  0  0  0  0  0  0  0  0  0  0  0
    5.2500   -1.2990    0.0000 C   0  0  0  0  0  0  0  0  0  0  0  0
    6.0000    0.0000    0.0000 O   0  0  0  0  0  0  0  0  0  0  0  0
    6.0000   -2.5981    0.0000 N   0  0  0  0  0  0  0  0  0  0  0  0
    7.5000   -2.5981    0.0000 C   0  0  0  0  0  0  0  0  0  0  0  0
    8.2500   -3.8971    0.0000 C   0  0  0  0  0  0  0  0  0  0  0  0
    9.7500   -3.8971    0.0000 C   0  0  0  0  0  0  0  0  0  0  0  0
   10.5000   -5.1962    0.0000 C   0  0  0  0  0  0  0  0  0  0  0  0
   10.5000   -2.5981    0.0000 C   0  0  0  0  0  0  0  0  0  0  0  0
    8.2500   -1.2990    0.0000 C   0  0  0  0  0  0  0  0  0  0  0  0
    7.5000    0.0000    0.0000 O   0  0  0  0  0  0  0  0  0  0  0  0
    9.7500   -1.2990    0.0000 N   0  0  0  0  0  0  0  0  0  0  0  0
   10.5000    0.0000    0.0000 C   0  0  0  0  0  0  0  0  0  0  0  0
   12.0000    0.0000    0.0000 C   0  0  0  0  0  0  0  0  0  0  0  0
   12.7500    1.2990    0.0000 C   0  0  0  0  0  0  0  0  0  0  0  0
   13.5000    2.5981    0.0000 C   0  0  0  0  0  0  0  0  0  0  0  0
    9.7500    1.2990    0.0000 C   0  0  0  0  0  0  0  0  0  0  0  0
    8.2500    1.2990    0.0000 O   0  0  0  0  0  0  0  0  0  0  0  0
   10.5000    2.5981    0.0000 O   0  0  0  0  0  0  0  0  0  0  0  0
  2  1  1  6
  2  3  1  0
  3  4  1  0
  4  5  2  0
  5  6  1  0
  6  7  2  0
  7  8  1  0
  8  9  2  0
  2 10  1  0
 10 11  2  0
 10 12  1  0
 12 13  1  0
 13 14  1  1
 14 15  1  0
 15 16  1  0
 15 17  1  0
 13 18  1  0
 18 19  2  0
 18 20  1  0
 20 21  1  0
 21 22  1  6
 22 23  1  0
 23 24  3  0
 21 25  1  0
 25 26  2  0
 25 27  1  0
  9  4  1  0
M  END
$$$$

     RDKit          2D

 28 28  0  0  0  0  0  0  0  0999 V2000
    3.0000   -2.5981    0.0000 N   0  0  0  0  0  0  0  0  0  0  0  0
    3.7500   -3.8971    0.0000 C   0  0  0  0  0  0  0  0  0  0  0  0
    3.7500   -1.2990    0.0000 C   0  0  0  0  0  0  0  0  0  0  0  0
    3.0000    0.0000    0.0000 C   0  0  0  0  0  0  0  0  0  0  0  0
    1.5000    0.0000    0.0000 C   0  0  0  0  0  0  0  0  0  0  0  0
    0.7500   -1.2990    0.0000 C   0  0  0  0  0  0  0  0  0  0  0  0
   -0.7500   -1.2990    0.0000 C   0  0  0  0  0  0  0  0  0  0  0  0
   -1.5000    0.0000    0.0000 C   0  0  0  0  0  0  0  0  0  0  0  0
   -0.7500    1.2990    0.0000 C   0  0  0  0  0  0  0  0  0  0  0  0
    0.7500    1.2990    0.0000 C   0  0  0  0  0  0  0  0  0  0  0  0
    5.2500   -1.2990    0.0000 C   0  0  0  0  0  0  0  0  0  0  0  0
    6.0000    0.0000    0.0000 O   0  0  0  0  0  0  0  0  0  0  0  0
    6.0000   -2.5981    0.0000 N   0  0  0  0  0  0  0  0  0  0  0  0
    7.5000   -2.5981    0.0000 C   0  0  0  0  0  0  0  0  0  0  0  0
    8.2500   -3.8971    0.0000 C   0  0  0  0  0  0  0  0  0  0  0  0
    9.7500   -3.8971    0.0000 C   0  0  0  0  0  0  0  0  0  0  0  0
   10.5000   -5.1962    0.0000 C   0  0  0  0  0  0  0  0  0  0  0  0
   10.5000   -2.5981    0.0000 C   0  0  0  0  0  0  0  0  0  0  0  0
    8.2500   -1.2990    0.0000 C   0  0  0  0  0  0  0  0  0  0  0  0
    7.5000    0.0000    0.0000 O   0  0  0  0  0  0  0  0  0  0  0  0
    9.7500   -1.2990    0.0000 N   0  0  0  0  0  0  0  0  0  0  0  0
   10.5000    0.0000    0.0000 C   0  0  0  0  0  0  0  0  0  0  0  0
   12.0000    0.0000    0.0000 C   0  0  0  0  0  0  0  0  0  0  0  0
   12.7500    1.2990    0.0000 C   0  0  0  0  0  0  0  0  0  0  0  0
   13.5000    2.5981    0.0000 C   0  0  0  0  0  0  0  0  0  0  0  0
    9.7500    1.2990    0.0000 C   0  0  0  0  0  0  0  0  0  0  0  0
    8.2500    1.2990    0.0000 O   0  0  0  0  0  0  0  0  0  0  0  0
   10.5000    2.5981    0.0000 O   0  0  0  0  0  0  0  0  0  0  0  0
  1  2  1  0
  1  3  1  0
  3  4  1  1
  4  5  1  0
  5  6  2  0
  6  7  1  0
  7  8  2  0
  8  9  1  0
  9 10  2  0
  3 11  1  0
 11 12  2  0
 11 13  1  0
 13 14  1  0
 14 15  1  1
 15 16  1  0
 16 17  1  0
 16 18  1  0
 14 19  1  0
 19 20  2  0
 19 21  1  0
 21 22  1  0
 22 23  1  6
 23 24  1  0
 24 25  3  0
 22 26  1  0
 26 27  2  0
 26 28  1  0
 10  5  1  0
M  END
$$$$

     RDKit          2D

 28 28  0  0  0  0  0  0  0  0999 V2000
    3.0000   -2.5981    0.0000 N   0  0  0  0  0  0  0  0  0  0  0  0
    3.7500   -3.8971    0.0000 C   0  0  0  0  0  0  0  0  0  0  0  0
    3.7500   -1.2990    0.0000 C   0  0  0  0  0  0  0  0  0  0  0  0
    3.0000    0.0000    0.0000 C   0  0  0  0  0  0  0  0  0  0  0  0
    1.5000    0.0000    0.0000 C   0  0  0  0  0  0  0  0  0  0  0  0
    0.7500   -1.2990    0.0000 C   0  0  0  0  0  0  0  0  0  0  0  0
   -0.7500   -1.2990    0.0000 C   0  0  0  0  0  0  0  0  0  0  0  0
   -1.5000    0.0000    0.0000 C   0  0  0  0  0  0  0  0  0  0  0  0
   -0.7500    1.2990    0.0000 C   0  0  0  0  0  0  0  0  0  0  0  0
    0.7500    1.2990    0.0000 C   0  0  0  0  0  0  0  0  0  0  0  0
    5.2500   -1.2990    0.0000 C   0  0  0  0  0  0  0  0  0  0  0  0
    6.0000    0.0000    0.0000 O   0  0  0  0  0  0  0  0  0  0  0  0
    6.0000   -2.5981    0.0000 N   0  0  0  0  0  0  0  0  0  0  0  0
    7.5000   -2.5981    0.0000 C   0  0  0  0  0  0  0  0  0  0  0  0
    8.2500   -3.8971    0.0000 C   0  0  0  0  0  0  0  0  0  0  0  0
    9.7500   -3.8971    0.0000 C   0  0  0  0  0  0  0  0  0  0  0  0
   10.5000   -5.1962    0.0000 C   0  0  0  0  0  0  0  0  0  0  0  0
   10.5000   -2.5981    0.0000 C   0  0  0  0  0  0  0  0  0  0  0  0
    8.2500   -1.2990    0.0000 C   0  0  0  0  0  0  0  0  0  0  0  0
    7.5000    0.0000    0.0000 O   0  0  0  0  0  0  0  0  0  0  0  0
    9.7500   -1.2990    0.0000 N   0  0  0  0  0  0  0  0  0  0  0  0
   10.5000    0.0000    0.0000 C   0  0  0  0  0  0  0  0  0  0  0  0
   12.0000    0.0000    0.0000 C   0  0  0  0  0  0  0  0  0  0  0  0
   12.7500    1.2990    0.0000 C   0  0  0  0  0  0  0  0  0  0  0  0
   13.5000    2.5981    0.0000 C   0  0  0  0  0  0  0  0  0  0  0  0
    9.7500    1.2990    0.0000 C   0  0  0  0  0  0  0  0  0  0  0  0
    8.2500    1.2990    0.0000 O   0  0  0  0  0  0  0  0  0  0  0  0
   10.5000    2.5981    0.0000 O   0  0  0  0  0  0  0  0  0  0  0  0
  1  2  1  0
  1  3  1  0
  3  4  1  6
  4  5  1  0
  5  6  2  0
  6  7  1  0
  7  8  2  0
  8  9  1  0
  9 10  2  0
  3 11  1  0
 11 12  2  0
 11 13  1  0
 13 14  1  0
 14 15  1  1
 15 16  1  0
 16 17  1  0
 16 18  1  0
 14 19  1  0
 19 20  2  0
 19 21  1  0
 21 22  1  0
 22 23  1  6
 23 24  1  0
 24 25  3  0
 22 26  1  0
 26 27  2  0
 26 28  1  0
 10  5  1  0
M  END
$$$$

     RDKit          2D

 23 22  0  0  0  0  0  0  0  0999 V2000
    2.5981   -1.5000    0.0000 N   0  0  0  0  0  0  0  0  0  0  0  0
    2.5981   -0.0000    0.0000 C   0  0  0  0  0  0  0  0  0  0  0  0
    1.2990    0.7500    0.0000 C   0  0  0  0  0  0  0  0  0  0  0  0
    1.2990    2.2500    0.0000 O   0  0  0  0  0  0  0  0  0  0  0  0
    0.0000    0.0000    0.0000 C   0  0  0  0  0  0  0  0  0  0  0  0
    3.8971    0.7500    0.0000 C   0  0  0  0  0  0  0  0  0  0  0  0
    3.8971    2.2500    0.0000 O   0  0  0  0  0  0  0  0  0  0  0  0
    5.1962   -0.0000    0.0000 N   0  0  0  0  0  0  0  0  0  0  0  0
    6.4952    0.7500    0.0000 C   0  0  0  0  0  0  0  0  0  0  0  0
    7.7942   -0.0000    0.0000 C   0  0  0  0  0  0  0  0  0  0  0  0
    9.0933    0.7500    0.0000 C   0  0  0  0  0  0  0  0  0  0  0  0
   10.3923   -0.0000    0.0000 C   0  0  0  0  0  0  0  0  0  0  0  0
    9.0933    2.2500    0.0000 C   0  0  0  0  0  0  0  0  0  0  0  0
    6.4952    2.2500    0.0000 C   0  0  0  0  0  0  0  0  0  0  0  0
    5.1962    3.0000    0.0000 O   0  0  0  0  0  0  0  0  0  0  0  0
    7.7942    3.0000    0.0000 N   0  0  0  0  0  0  0  0  0  0  0  0
    7.7942    4.5000    0.0000 C   0  0  0  0  0  0  0  0  0  0  0  0
    9.0933    5.2500    0.0000 C   0  0  0  0  0  0  0  0  0  0  0  0
    9.0933    6.7500    0.0000 C   0  0  0  0  0  0  0  0  0  0  0  0
    9.0933    8.2500    0.0000 C   0  0  0  0  0  0  0  0  0  0  0  0
    6.4952    5.2500    0.0000 C   0  0  0  0  0  0  0  0  0  0  0  0
    5.1962    4.5000    0.0000 O   0  0  0  0  0  0  0  0  0  0  0  0
    6.4952    6.7500    0.0000 O   0  0  0  0  0  0  0  0  0  0  0  0
  2  1  1  1
  2  3  1  0
  3  4  1  0
  3  5  1  1
  2  6  1  0
  6  7  2  0
  6  8  1  0
  8  9  1  0
  9 10  1  1
 10 11  1  0
 11 12  1  0
 11 13  1  0
  9 14  1  0
 14 15  2  0
 14 16  1  0
 16 17  1  0
 17 18  1  6
 18 19  1  0
 19 20  3  0
 17 21  1  0
 21 22  2  0
 21 23  1  0
M  END
$$$$

     RDKit          2D

 23 22  0  0  0  0  0  0  0  0999 V2000
    2.5981   -1.5000    0.0000 N   0  0  0  0  0  0  0  0  0  0  0  0
    2.5981   -0.0000    0.0000 C   0  0  0  0  0  0  0  0  0  0  0  0
    1.2990    0.7500    0.0000 C   0  0  0  0  0  0  0  0  0  0  0  0
    1.2990    2.2500    0.0000 O   0  0  0  0  0  0  0  0  0  0  0  0
    0.0000    0.0000    0.0000 C   0  0  0  0  0  0  0  0  0  0  0  0
    3.8971    0.7500    0.0000 C   0  0  0  0  0  0  0  0  0  0  0  0
    3.8971    2.2500    0.0000 O   0  0  0  0  0  0  0  0  0  0  0  0
    5.1962   -0.0000    0.0000 N   0  0  0  0  0  0  0  0  0  0  0  0
    6.4952    0.7500    0.0000 C   0  0  0  0  0  0  0  0  0  0  0  0
    7.7942   -0.0000    0.0000 C   0  0  0  0  0  0  0  0  0  0  0  0
    9.0933    0.7500    0.0000 C   0  0  0  0  0  0  0  0  0  0  0  0
   10.3923   -0.0000    0.0000 C   0  0  0  0  0  0  0  0  0  0  0  0
    9.0933    2.2500    0.0000 C   0  0  0  0  0  0  0  0  0  0  0  0
    6.4952    2.2500    0.0000 C   0  0  0  0  0  0  0  0  0  0  0  0
    5.1962    3.0000    0.0000 O   0  0  0  0  0  0  0  0  0  0  0  0
    7.7942    3.0000    0.0000 N   0  0  0  0  0  0  0  0  0  0  0  0
    7.7942    4.5000    0.0000 C   0  0  0  0  0  0  0  0  0  0  0  0
    9.0933    5.2500    0.0000 C   0  0  0  0  0  0  0  0  0  0  0  0
    9.0933    6.7500    0.0000 C   0  0  0  0  0  0  0  0  0  0  0  0
    9.0933    8.2500    0.0000 C   0  0  0  0  0  0  0  0  0  0  0  0
    6.4952    5.2500    0.0000 C   0  0  0  0  0  0  0  0  0  0  0  0
    5.1962    4.5000    0.0000 O   0  0  0  0  0  0  0  0  0  0  0  0
    6.4952    6.7500    0.0000 O   0  0  0  0  0  0  0  0  0  0  0  0
  2  1  1  6
  2  3  1  0
  3  4  1  0
  3  5  1  1
  2  6  1  0
  6  7  2  0
  6  8  1  0
  8  9  1  0
  9 10  1  1
 10 11  1  0
 11 12  1  0
 11 13  1  0
  9 14  1  0
 14 15  2  0
 14 16  1  0
 16 17  1  0
 17 18  1  6
 18 19  1  0
 19 20  3  0
 17 21  1  0
 21 22  2  0
 21 23  1  0
M  END
$$$$

     RDKit          2D

 24 23  0  0  0  0  0  0  0  0999 V2000
    1.2990    0.7500    0.0000 N   0  0  0  0  0  0  0  0  0  0  0  0
    0.0000    0.0000    0.0000 C   0  0  0  0  0  0  0  0  0  0  0  0
    2.5981   -0.0000    0.0000 C   0  0  0  0  0  0  0  0  0  0  0  0
    3.8971    0.7500    0.0000 C   0  0  0  0  0  0  0  0  0  0  0  0
    3.8971    2.2500    0.0000 O   0  0  0  0  0  0  0  0  0  0  0  0
    5.1962   -0.0000    0.0000 C   0  0  0  0  0  0  0  0  0  0  0  0
    2.5981   -1.5000    0.0000 C   0  0  0  0  0  0  0  0  0  0  0  0
    1.2990   -2.2500    0.0000 O   0  0  0  0  0  0  0  0  0  0  0  0
    3.8971   -2.2500    0.0000 N   0  0  0  0  0  0  0  0  0  0  0  0
    3.8971   -3.7500    0.0000 C   0  0  0  0  0  0  0  0  0  0  0  0
    5.1962   -4.5000    0.0000 C   0  0  0  0  0  0  0  0  0  0  0  0
    5.1962   -6.0000    0.0000 C   0  0  0  0  0  0  0  0  0  0  0  0
    6.4952   -6.7500    0.0000 C   0  0  0  0  0  0  0  0  0  0  0  0
    3.8971   -6.7500    0.0000 C   0  0  0  0  0  0  0  0  0  0  0  0
    2.5981   -4.5000    0.0000 C   0  0  0  0  0  0  0  0  0  0  0  0
    1.2990   -3.7500    0.0000 O   0  0  0  0  0  0  0  0  0  0  0  0
    2.5981   -6.0000    0.0000 N   0  0  0  0  0  0  0  0  0  0  0  0
    1.2990   -6.7500    0.0000 C   0  0  0  0  0  0  0  0  0  0  0  0
    1.2990   -8.2500    0.0000 C   0  0  0  0  0  0  0  0  0  0  0  0
    0.0000   -9.0000    0.0000 C   0  0  0  0  0  0  0  0  0  0  0  0
   -1.2990   -9.7500    0.0000 C   0  0  0  0  0  0  0  0  0  0  0  0
    0.0000   -6.0000    0.0000 C   0  0  0  0  0  0  0  0  0  0  0  0
    0.0000   -4.5000    0.0000 O   0  0  0  0  0  0  0  0  0  0  0  0
   -1.2990   -6.7500    0.0000 O   0  0  0  0  0  0  0  0  0  0  0  0
  1  2  1  0
  3  1  1  1
  3  4  1  0
  4  5  1  0
  4  6  1  6
  3  7  1  0
  7  8  2  0
  7  9  1  0
  9 10  1  0
 10 11  1  6
 11 12  1  0
 12 13  1  0
 12 14  1  0
 10 15  1  0
 15 16  2  0
 15 17  1  0
 17 18  1  0
 18 19  1  1
 19 20  1  0
 20 21  3  0
 18 22  1  0
 22 23  2  0
 22 24  1  0
M  END
$$$$

     RDKit          2D

 24 23  0  0  0  0  0  0  0  0999 V2000
    1.2990    0.7500    0.0000 N   0  0  0  0  0  0  0  0  0  0  0  0
    0.0000    0.0000    0.0000 C   0  0  0  0  0  0  0  0  0  0  0  0
    2.5981   -0.0000    0.0000 C   0  0  0  0  0  0  0  0  0  0  0  0
    3.8971    0.7500    0.0000 C   0  0  0  0  0  0  0  0  0  0  0  0
    3.8971    2.2500    0.0000 O   0  0  0  0  0  0  0  0  0  0  0  0
    5.1962   -0.0000    0.0000 C   0  0  0  0  0  0  0  0  0  0  0  0
    2.5981   -1.5000    0.0000 C   0  0  0  0  0  0  0  0  0  0  0  0
    1.2990   -2.2500    0.0000 O   0  0  0  0  0  0  0  0  0  0  0  0
    3.8971   -2.2500    0.0000 N   0  0  0  0  0  0  0  0  0  0  0  0
    3.8971   -3.7500    0.0000 C   0  0  0  0  0  0  0  0  0  0  0  0
    5.1962   -4.5000    0.0000 C   0  0  0  0  0  0  0  0  0  0  0  0
    5.1962   -6.0000    0.0000 C   0  0  0  0  0  0  0  0  0  0  0  0
    6.4952   -6.7500    0.0000 C   0  0  0  0  0  0  0  0  0  0  0  0
    3.8971   -6.7500    0.0000 C   0  0  0  0  0  0  0  0  0  0  0  0
    2.5981   -4.5000    0.0000 C   0  0  0  0  0  0  0  0  0  0  0  0
    1.2990   -3.7500    0.0000 O   0  0  0  0  0  0  0  0  0  0  0  0
    2.5981   -6.0000    0.0000 N   0  0  0  0  0  0  0  0  0  0  0  0
    1.2990   -6.7500    0.0000 C   0  0  0  0  0  0  0  0  0  0  0  0
    1.2990   -8.2500    0.0000 C   0  0  0  0  0  0  0  0  0  0  0  0
    0.0000   -9.0000    0.0000 C   0  0  0  0  0  0  0  0  0  0  0  0
   -1.2990   -9.7500    0.0000 C   0  0  0  0  0  0  0  0  0  0  0  0
    0.0000   -6.0000    0.0000 C   0  0  0  0  0  0  0  0  0  0  0  0
    0.0000   -4.5000    0.0000 O   0  0  0  0  0  0  0  0  0  0  0  0
   -1.2990   -6.7500    0.0000 O   0  0  0  0  0  0  0  0  0  0  0  0
  1  2  1  0
  3  1  1  6
  3  4  1  0
  4  5  1  0
  4  6  1  6
  3  7  1  0
  7  8  2  0
  7  9  1  0
  9 10  1  0
 10 11  1  6
 11 12  1  0
 12 13  1  0
 12 14  1  0
 10 15  1  0
 15 16  2  0
 15 17  1  0
 17 18  1  0
 18 19  1  1
 19 20  1  0
 20 21  3  0
 18 22  1  0
 22 23  2  0
 22 24  1  0
M  END
$$$$

     RDKit          2D

 24 23  0  0  0  0  0  0  0  0999 V2000
    2.5981    3.0000    0.0000 N   0  0  0  0  0  0  0  0  0  0  0  0
    1.2990    2.2500    0.0000 C   0  0  0  0  0  0  0  0  0  0  0  0
    1.2990    0.7500    0.0000 C   0  0  0  0  0  0  0  0  0  0  0  0
    0.0000    0.0000    0.0000 C   0  0  0  0  0  0  0  0  0  0  0  0
    2.5981   -0.0000    0.0000 C   0  0  0  0  0  0  0  0  0  0  0  0
    2.5981    4.5000    0.0000 C   0  0  0  0  0  0  0  0  0  0  0  0
    3.8971    5.2500    0.0000 C   0  0  0  0  0  0  0  0  0  0  0  0
    5.1962    4.5000    0.0000 O   0  0  0  0  0  0  0  0  0  0  0  0
    3.8971    6.7500    0.0000 N   0  0  0  0  0  0  0  0  0  0  0  0
    5.1962    7.5000    0.0000 C   0  0  0  0  0  0  0  0  0  0  0  0
    5.1962    9.0000    0.0000 C   0  0  0  0  0  0  0  0  0  0  0  0
    6.4952    9.7500    0.0000 C   0  0  0  0  0  0  0  0  0  0  0  0
    6.4952   11.2500    0.0000 C   0  0  0  0  0  0  0  0  0  0  0  0
    7.7942    9.0000    0.0000 C   0  0  0  0  0  0  0  0  0  0  0  0
    6.4952    6.7500    0.0000 C   0  0  0  0  0  0  0  0  0  0  0  0
    6.4952    5.2500    0.0000 O   0  0  0  0  0  0  0  0  0  0  0  0
    7.7942    7.5000    0.0000 N   0  0  0  0  0  0  0  0  0  0  0  0
    9.0933    6.7500    0.0000 C   0  0  0  0  0  0  0  0  0  0  0  0
   10.3923    7.5000    0.0000 C   0  0  0  0  0  0  0  0  0  0  0  0
   11.6913    6.7500    0.0000 C   0  0  0  0  0  0  0  0  0  0  0  0
   12.9904    6.0000    0.0000 C   0  0  0  0  0  0  0  0  0  0  0  0
    9.0933    5.2500    0.0000 C   0  0  0  0  0  0  0  0  0  0  0  0
    7.7942    4.5000    0.0000 O   0  0  0  0  0  0  0  0  0  0  0  0
   10.3923    4.5000    0.0000 O   0  0  0  0  0  0  0  0  0  0  0  0
  1  2  1  0
  2  3  1  0
  3  4  1  0
  3  5  1  0
  1  6  1  0
  6  7  1  0
  7  8  2  0
  7  9  1  0
  9 10  1  0
 10 11  1  6
 11 12  1  0
 12 13  1  0
 12 14  1  0
 10 15  1  0
 15 16  2  0
 15 17  1  0
 17 18  1  0
 18 19  1  1
 19 20  1  0
 20 21  3  0
 18 22  1  0
 22 23  2  0
 22 24  1  0
M  END
$$$$

     RDKit          2D

 27 26  0  0  0  0  0  0  0  0999 V2000
    3.8971    6.7500    0.0000 N   0  0  0  0  0  0  0  0  0  0  0  0
    3.8971    5.2500    0.0000 C   0  0  0  0  0  0  0  0  0  0  0  0
    2.5981    4.5000    0.0000 C   0  0  0  0  0  0  0  0  0  0  0  0
    2.5981    3.0000    0.0000 C   0  0  0  0  0  0  0  0  0  0  0  0
    1.2990    2.2500    0.0000 O   0  0  0  0  0  0  0  0  0  0  0  0
    1.2990    0.7500    0.0000 C   0  0  0  0  0  0  0  0  0  0  0  0
    0.0000    0.0000    0.0000 C   0  0  0  0  0  0  0  0  0  0  0  0
    2.5981   -0.0000    0.0000 C   0  0  0  0  0  0  0  0  0  0  0  0
    5.1962    7.5000    0.0000 C   0  0  0  0  0  0  0  0  0  0  0  0
    5.1962    9.0000    0.0000 C   0  0  0  0  0  0  0  0  0  0  0  0
    3.8971    9.7500    0.0000 O   0  0  0  0  0  0  0  0  0  0  0  0
    6.4952    9.7500    0.0000 N   0  0  0  0  0  0  0  0  0  0  0  0
    6.4952   11.2500    0.0000 C   0  0  0  0  0  0  0  0  0  0  0  0
    7.7942   12.0000    0.0000 C   0  0  0  0  0  0  0  0  0  0  0  0
    7.7942   13.5000    0.0000 C   0  0  0  0  0  0  0  0  0  0  0  0
    9.0933   14.2500    0.0000 C   0  0  0  0  0  0  0  0  0  0  0  0
    6.4952   14.2500    0.0000 C   0  0  0  0  0  0  0  0  0  0  0  0
    5.1962   12.0000    0.0000 C   0  0  0  0  0  0  0  0  0  0  0  0
    3.8971   11.2500    0.0000 O   0  0  0  0  0  0  0  0  0  0  0  0
    5.1962   13.5000    0.0000 N   0  0  0  0  0  0  0  0  0  0  0  0
    3.8971   14.2500    0.0000 C   0  0  0  0  0  0  0  0  0  0  0  0
    3.8971   15.7500    0.0000 C   0  0  0  0  0  0  0  0  0  0  0  0
    2.5981   16.5000    0.0000 C   0  0  0  0  0  0  0  0  0  0  0  0
    1.2990   17.2500    0.0000 C   0  0  0  0  0  0  0  0  0  0  0  0
    2.5981   13.5000    0.0000 C   0  0  0  0  0  0  0  0  0  0  0  0
    2.5981   12.0000    0.0000 O   0  0  0  0  0  0  0  0  0  0  0  0
    1.2990   14.2500    0.0000 O   0  0  0  0  0  0  0  0  0  0  0  0
  1  2  1  0
  2  3  1  0
  3  4  1  0
  4  5  1  0
  5  6  1  0
  6  7  1  0
  6  8  1  0
  1  9  1  0
  9 10  1  0
 10 11  2  0
 10 12  1  0
 12 13  1  0
 13 14  1  1
 14 15  1  0
 15 16  1  0
 15 17  1  0
 13 18  1  0
 18 19  2  0
 18 20  1  0
 20 21  1  0
 21 22  1  6
 22 23  1  0
 23 24  3  0
 21 25  1  0
 25 26  2  0
 25 27  1  0
M  END
$$$$

     RDKit          2D

 29 29  0  0  0  0  0  0  0  0999 V2000
    6.0000   -2.5981    0.0000 N   0  0  0  0  0  0  0  0  0  0  0  0
    5.2500   -1.2990    0.0000 C   0  0  0  0  0  0  0  0  0  0  0  0
    3.7500   -1.2990    0.0000 C   0  0  0  0  0  0  0  0  0  0  0  0
    3.0000    0.0000    0.0000 O   0  0  0  0  0  0  0  0  0  0  0  0
    1.5000    0.0000    0.0000 C   0  0  0  0  0  0  0  0  0  0  0  0
    0.7500   -1.2990    0.0000 C   0  0  0  0  0  0  0  0  0  0  0  0
   -0.7500   -1.2990    0.0000 C   0  0  0  0  0  0  0  0  0  0  0  0
   -1.5000    0.0000    0.0000 C   0  0  0  0  0  0  0  0  0  0  0  0
   -0.7500    1.2990    0.0000 C   0  0  0  0  0  0  0  0  0  0  0  0
    0.7500    1.2990    0.0000 C   0  0  0  0  0  0  0  0  0  0  0  0
    7.5000   -2.5981    0.0000 C   0  0  0  0  0  0  0  0  0  0  0  0
    8.2500   -3.8971    0.0000 C   0  0  0  0  0  0  0  0  0  0  0  0
    7.5000   -5.1962    0.0000 O   0  0  0  0  0  0  0  0  0  0  0  0
    9.7500   -3.8971    0.0000 N   0  0  0  0  0  0  0  0  0  0  0  0
   10.5000   -5.1962    0.0000 C   0  0  0  0  0  0  0  0  0  0  0  0
   12.0000   -5.1962    0.0000 C   0  0  0  0  0  0  0  0  0  0  0  0
   12.7500   -6.4952    0.0000 C   0  0  0  0  0  0  0  0  0  0  0  0
   14.2500   -6.4952    0.0000 C   0  0  0  0  0  0  0  0  0  0  0  0
   12.0000   -7.7942    0.0000 C   0  0  0  0  0  0  0  0  0  0  0  0
    9.7500   -6.4952    0.0000 C   0  0  0  0  0  0  0  0  0  0  0  0
    8.2500   -6.4952    0.0000 O   0  0  0  0  0  0  0  0  0  0  0  0
   10.5000   -7.7942    0.0000 N   0  0  0  0  0  0  0  0  0  0  0  0
    9.7500   -9.0933    0.0000 C   0  0  0  0  0  0  0  0  0  0  0  0
   10.5000  -10.3923    0.0000 C   0  0  0  0  0  0  0  0  0  0  0  0
    9.7500  -11.6913    0.0000 C   0  0  0  0  0  0  0  0  0  0  0  0
    9.0000  -12.9904    0.0000 C   0  0  0  0  0  0  0  0  0  0  0  0
    8.2500   -9.0933    0.0000 C   0  0  0  0  0  0  0  0  0  0  0  0
    7.5000   -7.7942    0.0000 O   0  0  0  0  0  0  0  0  0  0  0  0
    7.5000  -10.3923    0.0000 O   0  0  0  0  0  0  0  0  0  0  0  0
  1  2  1  0
  2  3  1  0
  3  4  1  0
  4  5  1  0
  5  6  2  0
  6  7  1  0
  7  8  2  0
  8  9  1  0
  9 10  2  0
  1 11  1  0
 11 12  1  0
 12 13  2  0
 12 14  1  0
 14 15  1  0
 15 16  1  6
 16 17  1  0
 17 18  1  0
 17 19  1  0
 15 20  1  0
 20 21  2  0
 20 22  1  0
 22 23  1  0
 23 24  1  1
 24 25  1  0
 25 26  3  0
 23 27  1  0
 27 28  2  0
 27 29  1  0
 10  5  1  0
M  END
$$$$

     RDKit          2D

 32 32  0  0  0  0  0  0  0  0999 V2000
    5.2500   -1.2990    0.0000 N   0  0  0  0  0  0  0  0  0  0  0  0
    3.7500   -1.2990    0.0000 C   0  0  0  0  0  0  0  0  0  0  0  0
    3.0000    0.0000    0.0000 C   0  0  0  0  0  0  0  0  0  0  0  0
    1.5000    0.0000    0.0000 C   0  0  0  0  0  0  0  0  0  0  0  0
    0.7500   -1.2990    0.0000 C   0  0  0  0  0  0  0  0  0  0  0  0
   -0.7500   -1.2990    0.0000 C   0  0  0  0  0  0  0  0  0  0  0  0
   -1.5000    0.0000    0.0000 C   0  0  0  0  0  0  0  0  0  0  0  0
   -0.7500    1.2990    0.0000 C   0  0  0  0  0  0  0  0  0  0  0  0
   -1.5000    2.5981    0.0000 O   0  0  0  0  0  0  0  0  0  0  0  0
   -0.7500    3.8971    0.0000 C   0  0  0  0  0  0  0  0  0  0  0  0
    0.7500    1.2990    0.0000 C   0  0  0  0  0  0  0  0  0  0  0  0
   -3.0000    0.0000    0.0000 O   0  0  0  0  0  0  0  0  0  0  0  0
   -3.7500    1.2990    0.0000 C   0  0  0  0  0  0  0  0  0  0  0  0
    6.0000   -2.5981    0.0000 C   0  0  0  0  0  0  0  0  0  0  0  0
    7.5000   -2.5981    0.0000 C   0  0  0  0  0  0  0  0  0  0  0  0
    8.2500   -1.2990    0.0000 O   0  0  0  0  0  0  0  0  0  0  0  0
    8.2500   -3.8971    0.0000 N   0  0  0  0  0  0  0  0  0  0  0  0
    9.7500   -3.8971    0.0000 C   0  0  0  0  0  0  0  0  0  0  0  0
   10.5000   -5.1962    0.0000 C   0  0  0  0  0  0  0  0  0  0  0  0
   12.0000   -5.1962    0.0000 C   0  0  0  0  0  0  0  0  0  0  0  0
   12.7500   -6.4952    0.0000 C   0  0  0  0  0  0  0  0  0  0  0  0
   12.7500   -3.8971    0.0000 C   0  0  0  0  0  0  0  0  0  0  0  0
   10.5000   -2.5981    0.0000 C   0  0  0  0  0  0  0  0  0  0  0  0
    9.7500   -1.2990    0.0000 O   0  0  0  0  0  0  0  0  0  0  0  0
   12.0000   -2.5981    0.0000 N   0  0  0  0  0  0  0  0  0  0  0  0
   12.7500   -1.2990    0.0000 C   0  0  0  0  0  0  0  0  0  0  0  0
   14.2500   -1.2990    0.0000 C   0  0  0  0  0  0  0  0  0  0  0  0
   15.0000    0.0000    0.0000 C   0  0  0  0  0  0  0  0  0  0  0  0
   15.7500    1.2990    0.0000 C   0  0  0  0  0  0  0  0  0  0  0  0
   12.0000    0.0000    0.0000 C   0  0  0  0  0  0  0  0  0  0  0  0
   10.5000    0.0000    0.0000 O   0  0  0  0  0  0  0  0  0  0  0  0
   12.7500    1.2990    0.0000 O   0  0  0  0  0  0  0  0  0  0  0  0
  1  2  1  0
  2  3  1  0
  3  4  1  0
  4  5  2  0
  5  6  1  0
  6  7  2  0
  7  8  1  0
  8  9  1  0
  9 10  1  0
  8 11  2  0
  7 12  1  0
 12 13  1  0
  1 14  1  0
 14 15  1  0
 15 16  2  0
 15 17  1  0
 17 18  1  0
 18 19  1  1
 19 20  1  0
 20 21  1  0
 20 22  1  0
 18 23  1  0
 23 24  2  0
 23 25  1  0
 25 26  1  0
 26 27  1  6
 27 28  1  0
 28 29  3  0
 26 30  1  0
 30 31  2  0
 30 32  1  0
 11  4  1  0
M  END
$$$$

     RDKit          2D

 39 39  0  0  0  0  0  0  0  0999 V2000
    1.2760    5.1962    0.0000 N   0  0  0  0  0  0  0  0  0  0  0  0
    2.7760    5.1962    0.0000 C   0  0  0  0  0  0  0  0  0  0  0  0
    3.5260    6.4952    0.0000 C   0  0  0  0  0  0  0  0  0  0  0  0
    2.7760    7.7942    0.0000 C   0  0  0  0  0  0  0  0  0  0  0  0
    3.5260    9.0933    0.0000 C   0  0  0  0  0  0  0  0  0  0  0  0
    1.2760    7.7942    0.0000 C   0  0  0  0  0  0  0  0  0  0  0  0
    3.5260    3.8971    0.0000 C   0  0  0  0  0  0  0  0  0  0  0  0
    5.0260    3.8971    0.0000 O   0  0  0  0  0  0  0  0  0  0  0  0
    2.7760    2.5981    0.0000 N   0  0  0  0  0  0  0  0  0  0  0  0
    3.5260    1.2990    0.0000 C   0  0  0  0  0  0  0  0  0  0  0  0
    5.0260    1.2990    0.0000 C   0  0  0  0  0  0  0  0  0  0  0  0
    5.7760    0.0000    0.0000 C   0  0  0  0  0  0  0  0  0  0  0  0
    7.2760    0.0000    0.0000 C   0  0  0  0  0  0  0  0  0  0  0  0
    5.0260   -1.2990    0.0000 C   0  0  0  0  0  0  0  0  0  0  0  0
    2.7760    0.0000    0.0000 C   0  0  0  0  0  0  0  0  0  0  0  0
    3.5260   -1.2990    0.0000 O   0  0  0  0  0  0  0  0  0  0  0  0
    1.2760    0.0000    0.0000 N   0  0  0  0  0  0  0  0  0  0  0  0
    0.3943    1.2135    0.0000 C   0  0  0  0  0  0  0  0  0  0  0  0
   -1.0323    0.7500    0.0000 C   0  0  0  0  0  0  0  0  0  0  0  0
   -1.0323   -0.7500    0.0000 C   0  0  0  0  0  0  0  0  0  0  0  0
    0.3943   -1.2135    0.0000 C   0  0  0  0  0  0  0  0  0  0  0  0
    0.8578   -2.6401    0.0000 C   0  0  0  0  0  0  0  0  0  0  0  0
    2.3250   -2.9520    0.0000 O   0  0  0  0  0  0  0  0  0  0  0  0
   -0.1459   -3.7548    0.0000 N   0  0  0  0  0  0  0  0  0  0  0  0
    0.3177   -5.1814    0.0000 C   0  0  0  0  0  0  0  0  0  0  0  0
   -0.6860   -6.2961    0.0000 C   0  0  0  0  0  0  0  0  0  0  0  0
   -0.2225   -7.7227    0.0000 C   0  0  0  0  0  0  0  0  0  0  0  0
   -1.2262   -8.8374    0.0000 C   0  0  0  0  0  0  0  0  0  0  0  0
    1.2447   -8.0346    0.0000 C   0  0  0  0  0  0  0  0  0  0  0  0
    1.7849   -5.4933    0.0000 C   0  0  0  0  0  0  0  0  0  0  0  0
    2.7886   -4.3786    0.0000 O   0  0  0  0  0  0  0  0  0  0  0  0
    2.2484   -6.9199    0.0000 N   0  0  0  0  0  0  0  0  0  0  0  0
    3.7156   -7.2317    0.0000 C   0  0  0  0  0  0  0  0  0  0  0  0
    4.1791   -8.6583    0.0000 C   0  0  0  0  0  0  0  0  0  0  0  0
    5.6464   -8.9702    0.0000 C   0  0  0  0  0  0  0  0  0  0  0  0
    7.1136   -9.2821    0.0000 C   0  0  0  0  0  0  0  0  0  0  0  0
    4.7193   -6.1170    0.0000 C   0  0  0  0  0  0  0  0  0  0  0  0
    4.2558   -4.6904    0.0000 O   0  0  0  0  0  0  0  0  0  0  0  0
    6.1865   -6.4289    0.0000 O   0  0  0  0  0  0  0  0  0  0  0  0
  2  1  1  1
  2  3  1  0
  3  4  1  0
  4  5  1  0
  4  6  1  0
  2  7  1  0
  7  8  2  0
  7  9  1  0
  9 10  1  0
 10 11  1  1
 11 12  1  0
 12 13  1  0
 12 14  1  0
 10 15  1  0
 15 16  2  0
 15 17  1  0
 17 18  1  0
 18 19  1  0
 19 20  1  0
 20 21  1  0
 21 22  1  6
 22 23  2  0
 22 24  1  0
 24 25  1  0
 25 26  1  1
 26 27  1  0
 27 28  1  0
 27 29  1  0
 25 30  1  0
 30 31  2  0
 30 32  1  0
 32 33  1  0
 33 34  1  6
 34 35  1  0
 35 36  3  0
 33 37  1  0
 37 38  2  0
 37 39  1  0
 21 17  1  0
M  END
$$$$

     RDKit          2D

 39 39  0  0  0  0  0  0  0  0999 V2000
    1.2760    5.1962    0.0000 N   0  0  0  0  0  0  0  0  0  0  0  0
    2.7760    5.1962    0.0000 C   0  0  0  0  0  0  0  0  0  0  0  0
    3.5260    6.4952    0.0000 C   0  0  0  0  0  0  0  0  0  0  0  0
    2.7760    7.7942    0.0000 C   0  0  0  0  0  0  0  0  0  0  0  0
    3.5260    9.0933    0.0000 C   0  0  0  0  0  0  0  0  0  0  0  0
    1.2760    7.7942    0.0000 C   0  0  0  0  0  0  0  0  0  0  0  0
    3.5260    3.8971    0.0000 C   0  0  0  0  0  0  0  0  0  0  0  0
    5.0260    3.8971    0.0000 O   0  0  0  0  0  0  0  0  0  0  0  0
    2.7760    2.5981    0.0000 N   0  0  0  0  0  0  0  0  0  0  0  0
    3.5260    1.2990    0.0000 C   0  0  0  0  0  0  0  0  0  0  0  0
    5.0260    1.2990    0.0000 C   0  0  0  0  0  0  0  0  0  0  0  0
    5.7760    0.0000    0.0000 C   0  0  0  0  0  0  0  0  0  0  0  0
    7.2760    0.0000    0.0000 C   0  0  0  0  0  0  0  0  0  0  0  0
    5.0260   -1.2990    0.0000 C   0  0  0  0  0  0  0  0  0  0  0  0
    2.7760    0.0000    0.0000 C   0  0  0  0  0  0  0  0  0  0  0  0
    3.5260   -1.2990    0.0000 O   0  0  0  0  0  0  0  0  0  0  0  0
    1.2760    0.0000    0.0000 N   0  0  0  0  0  0  0  0  0  0  0  0
    0.3943    1.2135    0.0000 C   0  0  0  0  0  0  0  0  0  0  0  0
   -1.0323    0.7500    0.0000 C   0  0  0  0  0  0  0  0  0  0  0  0
   -1.0323   -0.7500    0.0000 C   0  0  0  0  0  0  0  0  0  0  0  0
    0.3943   -1.2135    0.0000 C   0  0  0  0  0  0  0  0  0  0  0  0
    0.8578   -2.6401    0.0000 C   0  0  0  0  0  0  0  0  0  0  0  0
    2.3250   -2.9520    0.0000 O   0  0  0  0  0  0  0  0  0  0  0  0
   -0.1459   -3.7548    0.0000 N   0  0  0  0  0  0  0  0  0  0  0  0
    0.3177   -5.1814    0.0000 C   0  0  0  0  0  0  0  0  0  0  0  0
   -0.6860   -6.2961    0.0000 C   0  0  0  0  0  0  0  0  0  0  0  0
   -0.2225   -7.7227    0.0000 C   0  0  0  0  0  0  0  0  0  0  0  0
   -1.2262   -8.8374    0.0000 C   0  0  0  0  0  0  0  0  0  0  0  0
    1.2447   -8.0346    0.0000 C   0  0  0  0  0  0  0  0  0  0  0  0
    1.7849   -5.4933    0.0000 C   0  0  0  0  0  0  0  0  0  0  0  0
    2.7886   -4.3786    0.0000 O   0  0  0  0  0  0  0  0  0  0  0  0
    2.2484   -6.9199    0.0000 N   0  0  0  0  0  0  0  0  0  0  0  0
    3.7156   -7.2317    0.0000 C   0  0  0  0  0  0  0  0  0  0  0  0
    4.1791   -8.6583    0.0000 C   0  0  0  0  0  0  0  0  0  0  0  0
    5.6464   -8.9702    0.0000 C   0  0  0  0  0  0  0  0  0  0  0  0
    7.1136   -9.2821    0.0000 C   0  0  0  0  0  0  0  0  0  0  0  0
    4.7193   -6.1170    0.0000 C   0  0  0  0  0  0  0  0  0  0  0  0
    4.2558   -4.6904    0.0000 O   0  0  0  0  0  0  0  0  0  0  0  0
    6.1865   -6.4289    0.0000 O   0  0  0  0  0  0  0  0  0  0  0  0
  2  1  1  6
  2  3  1  0
  3  4  1  0
  4  5  1  0
  4  6  1  0
  2  7  1  0
  7  8  2  0
  7  9  1  0
  9 10  1  0
 10 11  1  1
 11 12  1  0
 12 13  1  0
 12 14  1  0
 10 15  1  0
 15 16  2  0
 15 17  1  0
 17 18  1  0
 18 19  1  0
 19 20  1  0
 20 21  1  0
 21 22  1  6
 22 23  2  0
 22 24  1  0
 24 25  1  0
 25 26  1  1
 26 27  1  0
 27 28  1  0
 27 29  1  0
 25 30  1  0
 30 31  2  0
 30 32  1  0
 32 33  1  0
 33 34  1  6
 34 35  1  0
 35 36  3  0
 33 37  1  0
 37 38  2  0
 37 39  1  0
 21 17  1  0
M  END
$$$$

     RDKit          2D

 40 40  0  0  0  0  0  0  0  0999 V2000
    1.2760    5.1962    0.0000 N   0  0  0  0  0  0  0  0  0  0  0  0
    0.5260    6.4952    0.0000 C   0  0  0  0  0  0  0  0  0  0  0  0
    2.7760    5.1962    0.0000 C   0  0  0  0  0  0  0  0  0  0  0  0
    3.5260    6.4952    0.0000 C   0  0  0  0  0  0  0  0  0  0  0  0
    2.7760    7.7942    0.0000 C   0  0  0  0  0  0  0  0  0  0  0  0
    3.5260    9.0933    0.0000 C   0  0  0  0  0  0  0  0  0  0  0  0
    1.2760    7.7942    0.0000 C   0  0  0  0  0  0  0  0  0  0  0  0
    3.5260    3.8971    0.0000 C   0  0  0  0  0  0  0  0  0  0  0  0
    5.0260    3.8971    0.0000 O   0  0  0  0  0  0  0  0  0  0  0  0
    2.7760    2.5981    0.0000 N   0  0  0  0  0  0  0  0  0  0  0  0
    3.5260    1.2990    0.0000 C   0  0  0  0  0  0  0  0  0  0  0  0
    5.0260    1.2990    0.0000 C   0  0  0  0  0  0  0  0  0  0  0  0
    5.7760    0.0000    0.0000 C   0  0  0  0  0  0  0  0  0  0  0  0
    7.2760    0.0000    0.0000 C   0  0  0  0  0  0  0  0  0  0  0  0
    5.0260   -1.2990    0.0000 C   0  0  0  0  0  0  0  0  0  0  0  0
    2.7760    0.0000    0.0000 C   0  0  0  0  0  0  0  0  0  0  0  0
    3.5260   -1.2990    0.0000 O   0  0  0  0  0  0  0  0  0  0  0  0
    1.2760    0.0000    0.0000 N   0  0  0  0  0  0  0  0  0  0  0  0
    0.3943    1.2135    0.0000 C   0  0  0  0  0  0  0  0  0  0  0  0
   -1.0323    0.7500    0.0000 C   0  0  0  0  0  0  0  0  0  0  0  0
   -1.0323   -0.7500    0.0000 C   0  0  0  0  0  0  0  0  0  0  0  0
    0.3943   -1.2135    0.0000 C   0  0  0  0  0  0  0  0  0  0  0  0
    0.8578   -2.6401    0.0000 C   0  0  0  0  0  0  0  0  0  0  0  0
    2.3250   -2.9520    0.0000 O   0  0  0  0  0  0  0  0  0  0  0  0
   -0.1459   -3.7548    0.0000 N   0  0  0  0  0  0  0  0  0  0  0  0
    0.3177   -5.1814    0.0000 C   0  0  0  0  0  0  0  0  0  0  0  0
   -0.6860   -6.2961    0.0000 C   0  0  0  0  0  0  0  0  0  0  0  0
   -0.2225   -7.7227    0.0000 C   0  0  0  0  0  0  0  0  0  0  0  0
   -1.2262   -8.8374    0.0000 C   0  0  0  0  0  0  0  0  0  0  0  0
    1.2447   -8.0346    0.0000 C   0  0  0  0  0  0  0  0  0  0  0  0
    1.7849   -5.4933    0.0000 C   0  0  0  0  0  0  0  0  0  0  0  0
    2.7886   -4.3786    0.0000 O   0  0  0  0  0  0  0  0  0  0  0  0
    2.2484   -6.9199    0.0000 N   0  0  0  0  0  0  0  0  0  0  0  0
    3.7156   -7.2317    0.0000 C   0  0  0  0  0  0  0  0  0  0  0  0
    4.1791   -8.6583    0.0000 C   0  0  0  0  0  0  0  0  0  0  0  0
    5.6464   -8.9702    0.0000 C   0  0  0  0  0  0  0  0  0  0  0  0
    7.1136   -9.2821    0.0000 C   0  0  0  0  0  0  0  0  0  0  0  0
    4.7193   -6.1170    0.0000 C   0  0  0  0  0  0  0  0  0  0  0  0
    4.2558   -4.6904    0.0000 O   0  0  0  0  0  0  0  0  0  0  0  0
    6.1865   -6.4289    0.0000 O   0  0  0  0  0  0  0  0  0  0  0  0
  1  2  1  0
  1  3  1  0
  3  4  1  1
  4  5  1  0
  5  6  1  0
  5  7  1  0
  3  8  1  0
  8  9  2  0
  8 10  1  0
 10 11  1  0
 11 12  1  1
 12 13  1  0
 13 14  1  0
 13 15  1  0
 11 16  1  0
 16 17  2  0
 16 18  1  0
 18 19  1  0
 19 20  1  0
 20 21  1  0
 21 22  1  0
 22 23  1  6
 23 24  2  0
 23 25  1  0
 25 26  1  0
 26 27  1  1
 27 28  1  0
 28 29  1  0
 28 30  1  0
 26 31  1  0
 31 32  2  0
 31 33  1  0
 33 34  1  0
 34 35  1  6
 35 36  1  0
 36 37  3  0
 34 38  1  0
 38 39  2  0
 38 40  1  0
 22 18  1  0
M  END
$$$$

     RDKit          2D

 40 40  0  0  0  0  0  0  0  0999 V2000
    1.2760    5.1962    0.0000 N   0  0  0  0  0  0  0  0  0  0  0  0
    0.5260    6.4952    0.0000 C   0  0  0  0  0  0  0  0  0  0  0  0
    2.7760    5.1962    0.0000 C   0  0  0  0  0  0  0  0  0  0  0  0
    3.5260    6.4952    0.0000 C   0  0  0  0  0  0  0  0  0  0  0  0
    2.7760    7.7942    0.0000 C   0  0  0  0  0  0  0  0  0  0  0  0
    3.5260    9.0933    0.0000 C   0  0  0  0  0  0  0  0  0  0  0  0
    1.2760    7.7942    0.0000 C   0  0  0  0  0  0  0  0  0  0  0  0
    3.5260    3.8971    0.0000 C   0  0  0  0  0  0  0  0  0  0  0  0
    5.0260    3.8971    0.0000 O   0  0  0  0  0  0  0  0  0  0  0  0
    2.7760    2.5981    0.0000 N   0  0  0  0  0  0  0  0  0  0  0  0
    3.5260    1.2990    0.0000 C   0  0  0  0  0  0  0  0  0  0  0  0
    5.0260    1.2990    0.0000 C   0  0  0  0  0  0  0  0  0  0  0  0
    5.7760    0.0000    0.0000 C   0  0  0  0  0  0  0  0  0  0  0  0
    7.2760    0.0000    0.0000 C   0  0  0  0  0  0  0  0  0  0  0  0
    5.0260   -1.2990    0.0000 C   0  0  0  0  0  0  0  0  0  0  0  0
    2.7760    0.0000    0.0000 C   0  0  0  0  0  0  0  0  0  0  0  0
    3.5260   -1.2990    0.0000 O   0  0  0  0  0  0  0  0  0  0  0  0
    1.2760    0.0000    0.0000 N   0  0  0  0  0  0  0  0  0  0  0  0
    0.3943    1.2135    0.0000 C   0  0  0  0  0  0  0  0  0  0  0  0
   -1.0323    0.7500    0.0000 C   0  0  0  0  0  0  0  0  0  0  0  0
   -1.0323   -0.7500    0.0000 C   0  0  0  0  0  0  0  0  0  0  0  0
    0.3943   -1.2135    0.0000 C   0  0  0  0  0  0  0  0  0  0  0  0
    0.8578   -2.6401    0.0000 C   0  0  0  0  0  0  0  0  0  0  0  0
    2.3250   -2.9520    0.0000 O   0  0  0  0  0  0  0  0  0  0  0  0
   -0.1459   -3.7548    0.0000 N   0  0  0  0  0  0  0  0  0  0  0  0
    0.3177   -5.1814    0.0000 C   0  0  0  0  0  0  0  0  0  0  0  0
   -0.6860   -6.2961    0.0000 C   0  0  0  0  0  0  0  0  0  0  0  0
   -0.2225   -7.7227    0.0000 C   0  0  0  0  0  0  0  0  0  0  0  0
   -1.2262   -8.8374    0.0000 C   0  0  0  0  0  0  0  0  0  0  0  0
    1.2447   -8.0346    0.0000 C   0  0  0  0  0  0  0  0  0  0  0  0
    1.7849   -5.4933    0.0000 C   0  0  0  0  0  0  0  0  0  0  0  0
    2.7886   -4.3786    0.0000 O   0  0  0  0  0  0  0  0  0  0  0  0
    2.2484   -6.9199    0.0000 N   0  0  0  0  0  0  0  0  0  0  0  0
    3.7156   -7.2317    0.0000 C   0  0  0  0  0  0  0  0  0  0  0  0
    4.1791   -8.6583    0.0000 C   0  0  0  0  0  0  0  0  0  0  0  0
    5.6464   -8.9702    0.0000 C   0  0  0  0  0  0  0  0  0  0  0  0
    7.1136   -9.2821    0.0000 C   0  0  0  0  0  0  0  0  0  0  0  0
    4.7193   -6.1170    0.0000 C   0  0  0  0  0  0  0  0  0  0  0  0
    4.2558   -4.6904    0.0000 O   0  0  0  0  0  0  0  0  0  0  0  0
    6.1865   -6.4289    0.0000 O   0  0  0  0  0  0  0  0  0  0  0  0
  1  2  1  0
  1  3  1  0
  3  4  1  6
  4  5  1  0
  5  6  1  0
  5  7  1  0
  3  8  1  0
  8  9  2  0
  8 10  1  0
 10 11  1  0
 11 12  1  1
 12 13  1  0
 13 14  1  0
 13 15  1  0
 11 16  1  0
 16 17  2  0
 16 18  1  0
 18 19  1  0
 19 20  1  0
 20 21  1  0
 21 22  1  0
 22 23  1  6
 23 24  2  0
 23 25  1  0
 25 26  1  0
 26 27  1  1
 27 28  1  0
 28 29  1  0
 28 30  1  0
 26 31  1  0
 31 32  2  0
 31 33  1  0
 33 34  1  0
 34 35  1  6
 35 36  1  0
 36 37  3  0
 34 38  1  0
 38 39  2  0
 38 40  1  0
 22 18  1  0
M  END
$$$$

     RDKit          2D

 39 39  0  0  0  0  0  0  0  0999 V2000
    1.2760    5.1962    0.0000 N   0  0  0  0  0  0  0  0  0  0  0  0
    2.7760    5.1962    0.0000 C   0  0  0  0  0  0  0  0  0  0  0  0
    3.5260    6.4952    0.0000 C   0  0  0  0  0  0  0  0  0  0  0  0
    2.7760    7.7942    0.0000 C   0  0  0  0  0  0  0  0  0  0  0  0
    3.5260    9.0933    0.0000 C   0  0  0  0  0  0  0  0  0  0  0  0
    1.2760    7.7942    0.0000 C   0  0  0  0  0  0  0  0  0  0  0  0
    3.5260    3.8971    0.0000 C   0  0  0  0  0  0  0  0  0  0  0  0
    5.0260    3.8971    0.0000 O   0  0  0  0  0  0  0  0  0  0  0  0
    2.7760    2.5981    0.0000 N   0  0  0  0  0  0  0  0  0  0  0  0
    3.5260    1.2990    0.0000 C   0  0  0  0  0  0  0  0  0  0  0  0
    5.0260    1.2990    0.0000 C   0  0  0  0  0  0  0  0  0  0  0  0
    5.7760    0.0000    0.0000 C   0  0  0  0  0  0  0  0  0  0  0  0
    7.2760    0.0000    0.0000 C   0  0  0  0  0  0  0  0  0  0  0  0
    5.0260   -1.2990    0.0000 C   0  0  0  0  0  0  0  0  0  0  0  0
    2.7760    0.0000    0.0000 C   0  0  0  0  0  0  0  0  0  0  0  0
    3.5260   -1.2990    0.0000 O   0  0  0  0  0  0  0  0  0  0  0  0
    1.2760    0.0000    0.0000 N   0  0  0  0  0  0  0  0  0  0  0  0
    0.3943    1.2135    0.0000 C   0  0  0  0  0  0  0  0  0  0  0  0
   -1.0323    0.7500    0.0000 C   0  0  0  0  0  0  0  0  0  0  0  0
   -1.0323   -0.7500    0.0000 C   0  0  0  0  0  0  0  0  0  0  0  0
    0.3943   -1.2135    0.0000 C   0  0  0  0  0  0  0  0  0  0  0  0
    0.8578   -2.6401    0.0000 C   0  0  0  0  0  0  0  0  0  0  0  0
    2.3250   -2.9520    0.0000 O   0  0  0  0  0  0  0  0  0  0  0  0
   -0.1459   -3.7548    0.0000 N   0  0  0  0  0  0  0  0  0  0  0  0
    0.3177   -5.1814    0.0000 C   0  0  0  0  0  0  0  0  0  0  0  0
   -0.6860   -6.2961    0.0000 C   0  0  0  0  0  0  0  0  0  0  0  0
   -0.2225   -7.7227    0.0000 C   0  0  0  0  0  0  0  0  0  0  0  0
   -1.2262   -8.8374    0.0000 C   0  0  0  0  0  0  0  0  0  0  0  0
    1.2447   -8.0346    0.0000 C   0  0  0  0  0  0  0  0  0  0  0  0
    1.7849   -5.4933    0.0000 C   0  0  0  0  0  0  0  0  0  0  0  0
    2.7886   -4.3786    0.0000 O   0  0  0  0  0  0  0  0  0  0  0  0
    2.2484   -6.9199    0.0000 N   0  0  0  0  0  0  0  0  0  0  0  0
    3.7156   -7.2317    0.0000 C   0  0  0  0  0  0  0  0  0  0  0  0
    4.1791   -8.6583    0.0000 C   0  0  0  0  0  0  0  0  0  0  0  0
    5.6464   -8.9702    0.0000 C   0  0  0  0  0  0  0  0  0  0  0  0
    7.1136   -9.2821    0.0000 C   0  0  0  0  0  0  0  0  0  0  0  0
    4.7193   -6.1170    0.0000 C   0  0  0  0  0  0  0  0  0  0  0  0
    4.2558   -4.6904    0.0000 O   0  0  0  0  0  0  0  0  0  0  0  0
    6.1865   -6.4289    0.0000 O   0  0  0  0  0  0  0  0  0  0  0  0
  2  1  1  1
  2  3  1  0
  3  4  1  0
  4  5  1  0
  4  6  1  0
  2  7  1  0
  7  8  2  0
  7  9  1  0
  9 10  1  0
 10 11  1  6
 11 12  1  0
 12 13  1  0
 12 14  1  0
 10 15  1  0
 15 16  2  0
 15 17  1  0
 17 18  1  0
 18 19  1  0
 19 20  1  0
 20 21  1  0
 21 22  1  6
 22 23  2  0
 22 24  1  0
 24 25  1  0
 25 26  1  1
 26 27  1  0
 27 28  1  0
 27 29  1  0
 25 30  1  0
 30 31  2  0
 30 32  1  0
 32 33  1  0
 33 34  1  6
 34 35  1  0
 35 36  3  0
 33 37  1  0
 37 38  2  0
 37 39  1  0
 21 17  1  0
M  END
$$$$

     RDKit          2D

 39 39  0  0  0  0  0  0  0  0999 V2000
    1.2760    5.1962    0.0000 N   0  0  0  0  0  0  0  0  0  0  0  0
    2.7760    5.1962    0.0000 C   0  0  0  0  0  0  0  0  0  0  0  0
    3.5260    6.4952    0.0000 C   0  0  0  0  0  0  0  0  0  0  0  0
    2.7760    7.7942    0.0000 C   0  0  0  0  0  0  0  0  0  0  0  0
    3.5260    9.0933    0.0000 C   0  0  0  0  0  0  0  0  0  0  0  0
    1.2760    7.7942    0.0000 C   0  0  0  0  0  0  0  0  0  0  0  0
    3.5260    3.8971    0.0000 C   0  0  0  0  0  0  0  0  0  0  0  0
    5.0260    3.8971    0.0000 O   0  0  0  0  0  0  0  0  0  0  0  0
    2.7760    2.5981    0.0000 N   0  0  0  0  0  0  0  0  0  0  0  0
    3.5260    1.2990    0.0000 C   0  0  0  0  0  0  0  0  0  0  0  0
    5.0260    1.2990    0.0000 C   0  0  0  0  0  0  0  0  0  0  0  0
    5.7760    0.0000    0.0000 C   0  0  0  0  0  0  0  0  0  0  0  0
    7.2760    0.0000    0.0000 C   0  0  0  0  0  0  0  0  0  0  0  0
    5.0260   -1.2990    0.0000 C   0  0  0  0  0  0  0  0  0  0  0  0
    2.7760    0.0000    0.0000 C   0  0  0  0  0  0  0  0  0  0  0  0
    3.5260   -1.2990    0.0000 O   0  0  0  0  0  0  0  0  0  0  0  0
    1.2760    0.0000    0.0000 N   0  0  0  0  0  0  0  0  0  0  0  0
    0.3943    1.2135    0.0000 C   0  0  0  0  0  0  0  0  0  0  0  0
   -1.0323    0.7500    0.0000 C   0  0  0  0  0  0  0  0  0  0  0  0
   -1.0323   -0.7500    0.0000 C   0  0  0  0  0  0  0  0  0  0  0  0
    0.3943   -1.2135    0.0000 C   0  0  0  0  0  0  0  0  0  0  0  0
    0.8578   -2.6401    0.0000 C   0  0  0  0  0  0  0  0  0  0  0  0
    2.3250   -2.9520    0.0000 O   0  0  0  0  0  0  0  0  0  0  0  0
   -0.1459   -3.7548    0.0000 N   0  0  0  0  0  0  0  0  0  0  0  0
    0.3177   -5.1814    0.0000 C   0  0  0  0  0  0  0  0  0  0  0  0
   -0.6860   -6.2961    0.0000 C   0  0  0  0  0  0  0  0  0  0  0  0
   -0.2225   -7.7227    0.0000 C   0  0  0  0  0  0  0  0  0  0  0  0
   -1.2262   -8.8374    0.0000 C   0  0  0  0  0  0  0  0  0  0  0  0
    1.2447   -8.0346    0.0000 C   0  0  0  0  0  0  0  0  0  0  0  0
    1.7849   -5.4933    0.0000 C   0  0  0  0  0  0  0  0  0  0  0  0
    2.7886   -4.3786    0.0000 O   0  0  0  0  0  0  0  0  0  0  0  0
    2.2484   -6.9199    0.0000 N   0  0  0  0  0  0  0  0  0  0  0  0
    3.7156   -7.2317    0.0000 C   0  0  0  0  0  0  0  0  0  0  0  0
    4.1791   -8.6583    0.0000 C   0  0  0  0  0  0  0  0  0  0  0  0
    5.6464   -8.9702    0.0000 C   0  0  0  0  0  0  0  0  0  0  0  0
    7.1136   -9.2821    0.0000 C   0  0  0  0  0  0  0  0  0  0  0  0
    4.7193   -6.1170    0.0000 C   0  0  0  0  0  0  0  0  0  0  0  0
    4.2558   -4.6904    0.0000 O   0  0  0  0  0  0  0  0  0  0  0  0
    6.1865   -6.4289    0.0000 O   0  0  0  0  0  0  0  0  0  0  0  0
  2  1  1  6
  2  3  1  0
  3  4  1  0
  4  5  1  0
  4  6  1  0
  2  7  1  0
  7  8  2  0
  7  9  1  0
  9 10  1  0
 10 11  1  6
 11 12  1  0
 12 13  1  0
 12 14  1  0
 10 15  1  0
 15 16  2  0
 15 17  1  0
 17 18  1  0
 18 19  1  0
 19 20  1  0
 20 21  1  0
 21 22  1  6
 22 23  2  0
 22 24  1  0
 24 25  1  0
 25 26  1  1
 26 27  1  0
 27 28  1  0
 27 29  1  0
 25 30  1  0
 30 31  2  0
 30 32  1  0
 32 33  1  0
 33 34  1  6
 34 35  1  0
 35 36  3  0
 33 37  1  0
 37 38  2  0
 37 39  1  0
 21 17  1  0
M  END
$$$$

     RDKit          2D

 40 40  0  0  0  0  0  0  0  0999 V2000
    1.2760    5.1962    0.0000 N   0  0  0  0  0  0  0  0  0  0  0  0
    0.5260    6.4952    0.0000 C   0  0  0  0  0  0  0  0  0  0  0  0
    2.7760    5.1962    0.0000 C   0  0  0  0  0  0  0  0  0  0  0  0
    3.5260    6.4952    0.0000 C   0  0  0  0  0  0  0  0  0  0  0  0
    2.7760    7.7942    0.0000 C   0  0  0  0  0  0  0  0  0  0  0  0
    3.5260    9.0933    0.0000 C   0  0  0  0  0  0  0  0  0  0  0  0
    1.2760    7.7942    0.0000 C   0  0  0  0  0  0  0  0  0  0  0  0
    3.5260    3.8971    0.0000 C   0  0  0  0  0  0  0  0  0  0  0  0
    5.0260    3.8971    0.0000 O   0  0  0  0  0  0  0  0  0  0  0  0
    2.7760    2.5981    0.0000 N   0  0  0  0  0  0  0  0  0  0  0  0
    3.5260    1.2990    0.0000 C   0  0  0  0  0  0  0  0  0  0  0  0
    5.0260    1.2990    0.0000 C   0  0  0  0  0  0  0  0  0  0  0  0
    5.7760    0.0000    0.0000 C   0  0  0  0  0  0  0  0  0  0  0  0
    7.2760    0.0000    0.0000 C   0  0  0  0  0  0  0  0  0  0  0  0
    5.0260   -1.2990    0.0000 C   0  0  0  0  0  0  0  0  0  0  0  0
    2.7760    0.0000    0.0000 C   0  0  0  0  0  0  0  0  0  0  0  0
    3.5260   -1.2990    0.0000 O   0  0  0  0  0  0  0  0  0  0  0  0
    1.2760    0.0000    0.0000 N   0  0  0  0  0  0  0  0  0  0  0  0
    0.3943    1.2135    0.0000 C   0  0  0  0  0  0  0  0  0  0  0  0
   -1.0323    0.7500    0.0000 C   0  0  0  0  0  0  0  0  0  0  0  0
   -1.0323   -0.7500    0.0000 C   0  0  0  0  0  0  0  0  0  0  0  0
    0.3943   -1.2135    0.0000 C   0  0  0  0  0  0  0  0  0  0  0  0
    0.8578   -2.6401    0.0000 C   0  0  0  0  0  0  0  0  0  0  0  0
    2.3250   -2.9520    0.0000 O   0  0  0  0  0  0  0  0  0  0  0  0
   -0.1459   -3.7548    0.0000 N   0  0  0  0  0  0  0  0  0  0  0  0
    0.3177   -5.1814    0.0000 C   0  0  0  0  0  0  0  0  0  0  0  0
   -0.6860   -6.2961    0.0000 C   0  0  0  0  0  0  0  0  0  0  0  0
   -0.2225   -7.7227    0.0000 C   0  0  0  0  0  0  0  0  0  0  0  0
   -1.2262   -8.8374    0.0000 C   0  0  0  0  0  0  0  0  0  0  0  0
    1.2447   -8.0346    0.0000 C   0  0  0  0  0  0  0  0  0  0  0  0
    1.7849   -5.4933    0.0000 C   0  0  0  0  0  0  0  0  0  0  0  0
    2.7886   -4.3786    0.0000 O   0  0  0  0  0  0  0  0  0  0  0  0
    2.2484   -6.9199    0.0000 N   0  0  0  0  0  0  0  0  0  0  0  0
    3.7156   -7.2317    0.0000 C   0  0  0  0  0  0  0  0  0  0  0  0
    4.1791   -8.6583    0.0000 C   0  0  0  0  0  0  0  0  0  0  0  0
    5.6464   -8.9702    0.0000 C   0  0  0  0  0  0  0  0  0  0  0  0
    7.1136   -9.2821    0.0000 C   0  0  0  0  0  0  0  0  0  0  0  0
    4.7193   -6.1170    0.0000 C   0  0  0  0  0  0  0  0  0  0  0  0
    4.2558   -4.6904    0.0000 O   0  0  0  0  0  0  0  0  0  0  0  0
    6.1865   -6.4289    0.0000 O   0  0  0  0  0  0  0  0  0  0  0  0
  1  2  1  0
  1  3  1  0
  3  4  1  1
  4  5  1  0
  5  6  1  0
  5  7  1  0
  3  8  1  0
  8  9  2  0
  8 10  1  0
 10 11  1  0
 11 12  1  6
 12 13  1  0
 13 14  1  0
 13 15  1  0
 11 16  1  0
 16 17  2  0
 16 18  1  0
 18 19  1  0
 19 20  1  0
 20 21  1  0
 21 22  1  0
 22 23  1  6
 23 24  2  0
 23 25  1  0
 25 26  1  0
 26 27  1  1
 27 28  1  0
 28 29  1  0
 28 30  1  0
 26 31  1  0
 31 32  2  0
 31 33  1  0
 33 34  1  0
 34 35  1  6
 35 36  1  0
 36 37  3  0
 34 38  1  0
 38 39  2  0
 38 40  1  0
 22 18  1  0
M  END
$$$$

     RDKit          2D

 40 40  0  0  0  0  0  0  0  0999 V2000
    1.2760    5.1962    0.0000 N   0  0  0  0  0  0  0  0  0  0  0  0
    0.5260    6.4952    0.0000 C   0  0  0  0  0  0  0  0  0  0  0  0
    2.7760    5.1962    0.0000 C   0  0  0  0  0  0  0  0  0  0  0  0
    3.5260    6.4952    0.0000 C   0  0  0  0  0  0  0  0  0  0  0  0
    2.7760    7.7942    0.0000 C   0  0  0  0  0  0  0  0  0  0  0  0
    3.5260    9.0933    0.0000 C   0  0  0  0  0  0  0  0  0  0  0  0
    1.2760    7.7942    0.0000 C   0  0  0  0  0  0  0  0  0  0  0  0
    3.5260    3.8971    0.0000 C   0  0  0  0  0  0  0  0  0  0  0  0
    5.0260    3.8971    0.0000 O   0  0  0  0  0  0  0  0  0  0  0  0
    2.7760    2.5981    0.0000 N   0  0  0  0  0  0  0  0  0  0  0  0
    3.5260    1.2990    0.0000 C   0  0  0  0  0  0  0  0  0  0  0  0
    5.0260    1.2990    0.0000 C   0  0  0  0  0  0  0  0  0  0  0  0
    5.7760    0.0000    0.0000 C   0  0  0  0  0  0  0  0  0  0  0  0
    7.2760    0.0000    0.0000 C   0  0  0  0  0  0  0  0  0  0  0  0
    5.0260   -1.2990    0.0000 C   0  0  0  0  0  0  0  0  0  0  0  0
    2.7760    0.0000    0.0000 C   0  0  0  0  0  0  0  0  0  0  0  0
    3.5260   -1.2990    0.0000 O   0  0  0  0  0  0  0  0  0  0  0  0
    1.2760    0.0000    0.0000 N   0  0  0  0  0  0  0  0  0  0  0  0
    0.3943    1.2135    0.0000 C   0  0  0  0  0  0  0  0  0  0  0  0
   -1.0323    0.7500    0.0000 C   0  0  0  0  0  0  0  0  0  0  0  0
   -1.0323   -0.7500    0.0000 C   0  0  0  0  0  0  0  0  0  0  0  0
    0.3943   -1.2135    0.0000 C   0  0  0  0  0  0  0  0  0  0  0  0
    0.8578   -2.6401    0.0000 C   0  0  0  0  0  0  0  0  0  0  0  0
    2.3250   -2.9520    0.0000 O   0  0  0  0  0  0  0  0  0  0  0  0
   -0.1459   -3.7548    0.0000 N   0  0  0  0  0  0  0  0  0  0  0  0
    0.3177   -5.1814    0.0000 C   0  0  0  0  0  0  0  0  0  0  0  0
   -0.6860   -6.2961    0.0000 C   0  0  0  0  0  0  0  0  0  0  0  0
   -0.2225   -7.7227    0.0000 C   0  0  0  0  0  0  0  0  0  0  0  0
   -1.2262   -8.8374    0.0000 C   0  0  0  0  0  0  0  0  0  0  0  0
    1.2447   -8.0346    0.0000 C   0  0  0  0  0  0  0  0  0  0  0  0
    1.7849   -5.4933    0.0000 C   0  0  0  0  0  0  0  0  0  0  0  0
    2.7886   -4.3786    0.0000 O   0  0  0  0  0  0  0  0  0  0  0  0
    2.2484   -6.9199    0.0000 N   0  0  0  0  0  0  0  0  0  0  0  0
    3.7156   -7.2317    0.0000 C   0  0  0  0  0  0  0  0  0  0  0  0
    4.1791   -8.6583    0.0000 C   0  0  0  0  0  0  0  0  0  0  0  0
    5.6464   -8.9702    0.0000 C   0  0  0  0  0  0  0  0  0  0  0  0
    7.1136   -9.2821    0.0000 C   0  0  0  0  0  0  0  0  0  0  0  0
    4.7193   -6.1170    0.0000 C   0  0  0  0  0  0  0  0  0  0  0  0
    4.2558   -4.6904    0.0000 O   0  0  0  0  0  0  0  0  0  0  0  0
    6.1865   -6.4289    0.0000 O   0  0  0  0  0  0  0  0  0  0  0  0
  1  2  1  0
  1  3  1  0
  3  4  1  6
  4  5  1  0
  5  6  1  0
  5  7  1  0
  3  8  1  0
  8  9  2  0
  8 10  1  0
 10 11  1  0
 11 12  1  6
 12 13  1  0
 13 14  1  0
 13 15  1  0
 11 16  1  0
 16 17  2  0
 16 18  1  0
 18 19  1  0
 19 20  1  0
 20 21  1  0
 21 22  1  0
 22 23  1  6
 23 24  2  0
 23 25  1  0
 25 26  1  0
 26 27  1  1
 27 28  1  0
 28 29  1  0
 28 30  1  0
 26 31  1  0
 31 32  2  0
 31 33  1  0
 33 34  1  0
 34 35  1  6
 35 36  1  0
 36 37  3  0
 34 38  1  0
 38 39  2  0
 38 40  1  0
 22 18  1  0
M  END
$$$$

     RDKit          2D

 40 40  0  0  0  0  0  0  0  0999 V2000
    8.0260    1.2990    0.0000 N   0  0  0  0  0  0  0  0  0  0  0  0
    7.2760    0.0000    0.0000 C   0  0  0  0  0  0  0  0  0  0  0  0
    8.0260   -1.2990    0.0000 C   0  0  0  0  0  0  0  0  0  0  0  0
    9.5260   -1.2990    0.0000 C   0  0  0  0  0  0  0  0  0  0  0  0
   10.2760   -2.5981    0.0000 C   0  0  0  0  0  0  0  0  0  0  0  0
   10.2760    0.0000    0.0000 C   0  0  0  0  0  0  0  0  0  0  0  0
    5.7760    0.0000    0.0000 C   0  0  0  0  0  0  0  0  0  0  0  0
    5.0260   -1.2990    0.0000 O   0  0  0  0  0  0  0  0  0  0  0  0
    5.0260    1.2990    0.0000 N   0  0  0  0  0  0  0  0  0  0  0  0
    5.7760    2.5981    0.0000 C   0  0  0  0  0  0  0  0  0  0  0  0
    3.5260    1.2990    0.0000 C   0  0  0  0  0  0  0  0  0  0  0  0
    2.7760    2.5981    0.0000 C   0  0  0  0  0  0  0  0  0  0  0  0
    3.5260    3.8971    0.0000 C   0  0  0  0  0  0  0  0  0  0  0  0
    2.7760    5.1962    0.0000 C   0  0  0  0  0  0  0  0  0  0  0  0
    5.0260    3.8971    0.0000 C   0  0  0  0  0  0  0  0  0  0  0  0
    2.7760    0.0000    0.0000 C   0  0  0  0  0  0  0  0  0  0  0  0
    3.5260   -1.2990    0.0000 O   0  0  0  0  0  0  0  0  0  0  0  0
    1.2760    0.0000    0.0000 N   0  0  0  0  0  0  0  0  0  0  0  0
    0.3943    1.2135    0.0000 C   0  0  0  0  0  0  0  0  0  0  0  0
   -1.0323    0.7500    0.0000 C   0  0  0  0  0  0  0  0  0  0  0  0
   -1.0323   -0.7500    0.0000 C   0  0  0  0  0  0  0  0  0  0  0  0
    0.3943   -1.2135    0.0000 C   0  0  0  0  0  0  0  0  0  0  0  0
    0.8578   -2.6401    0.0000 C   0  0  0  0  0  0  0  0  0  0  0  0
    2.3250   -2.9520    0.0000 O   0  0  0  0  0  0  0  0  0  0  0  0
   -0.1459   -3.7548    0.0000 N   0  0  0  0  0  0  0  0  0  0  0  0
    0.3177   -5.1814    0.0000 C   0  0  0  0  0  0  0  0  0  0  0  0
   -0.6860   -6.2961    0.0000 C   0  0  0  0  0  0  0  0  0  0  0  0
   -0.2225   -7.7227    0.0000 C   0  0  0  0  0  0  0  0  0  0  0  0
   -1.2262   -8.8374    0.0000 C   0  0  0  0  0  0  0  0  0  0  0  0
    1.2447   -8.0346    0.0000 C   0  0  0  0  0  0  0  0  0  0  0  0
    1.7849   -5.4933    0.0000 C   0  0  0  0  0  0  0  0  0  0  0  0
    2.7886   -4.3786    0.0000 O   0  0  0  0  0  0  0  0  0  0  0  0
    2.2484   -6.9199    0.0000 N   0  0  0  0  0  0  0  0  0  0  0  0
    3.7156   -7.2317    0.0000 C   0  0  0  0  0  0  0  0  0  0  0  0
    4.1791   -8.6583    0.0000 C   0  0  0  0  0  0  0  0  0  0  0  0
    5.6464   -8.9702    0.0000 C   0  0  0  0  0  0  0  0  0  0  0  0
    7.1136   -9.2821    0.0000 C   0  0  0  0  0  0  0  0  0  0  0  0
    4.7193   -6.1170    0.0000 C   0  0  0  0  0  0  0  0  0  0  0  0
    4.2558   -4.6904    0.0000 O   0  0  0  0  0  0  0  0  0  0  0  0
    6.1865   -6.4289    0.0000 O   0  0  0  0  0  0  0  0  0  0  0  0
  2  1  1  1
  2  3  1  0
  3  4  1  0
  4  5  1  0
  4  6  1  0
  2  7  1  0
  7  8  2  0
  7  9  1  0
  9 10  1  0
  9 11  1  0
 11 12  1  6
 12 13  1  0
 13 14  1  0
 13 15  1  0
 11 16  1  0
 16 17  2  0
 16 18  1  0
 18 19  1  0
 19 20  1  0
 20 21  1  0
 21 22  1  0
 22 23  1  6
 23 24  2  0
 23 25  1  0
 25 26  1  0
 26 27  1  1
 27 28  1  0
 28 29  1  0
 28 30  1  0
 26 31  1  0
 31 32  2  0
 31 33  1  0
 33 34  1  0
 34 35  1  6
 35 36  1  0
 36 37  3  0
 34 38  1  0
 38 39  2  0
 38 40  1  0
 22 18  1  0
M  END
$$$$

     RDKit          2D

 40 40  0  0  0  0  0  0  0  0999 V2000
    8.0260    1.2990    0.0000 N   0  0  0  0  0  0  0  0  0  0  0  0
    7.2760    0.0000    0.0000 C   0  0  0  0  0  0  0  0  0  0  0  0
    8.0260   -1.2990    0.0000 C   0  0  0  0  0  0  0  0  0  0  0  0
    9.5260   -1.2990    0.0000 C   0  0  0  0  0  0  0  0  0  0  0  0
   10.2760   -2.5981    0.0000 C   0  0  0  0  0  0  0  0  0  0  0  0
   10.2760    0.0000    0.0000 C   0  0  0  0  0  0  0  0  0  0  0  0
    5.7760    0.0000    0.0000 C   0  0  0  0  0  0  0  0  0  0  0  0
    5.0260   -1.2990    0.0000 O   0  0  0  0  0  0  0  0  0  0  0  0
    5.0260    1.2990    0.0000 N   0  0  0  0  0  0  0  0  0  0  0  0
    5.7760    2.5981    0.0000 C   0  0  0  0  0  0  0  0  0  0  0  0
    3.5260    1.2990    0.0000 C   0  0  0  0  0  0  0  0  0  0  0  0
    2.7760    2.5981    0.0000 C   0  0  0  0  0  0  0  0  0  0  0  0
    3.5260    3.8971    0.0000 C   0  0  0  0  0  0  0  0  0  0  0  0
    2.7760    5.1962    0.0000 C   0  0  0  0  0  0  0  0  0  0  0  0
    5.0260    3.8971    0.0000 C   0  0  0  0  0  0  0  0  0  0  0  0
    2.7760    0.0000    0.0000 C   0  0  0  0  0  0  0  0  0  0  0  0
    3.5260   -1.2990    0.0000 O   0  0  0  0  0  0  0  0  0  0  0  0
    1.2760    0.0000    0.0000 N   0  0  0  0  0  0  0  0  0  0  0  0
    0.3943    1.2135    0.0000 C   0  0  0  0  0  0  0  0  0  0  0  0
   -1.0323    0.7500    0.0000 C   0  0  0  0  0  0  0  0  0  0  0  0
   -1.0323   -0.7500    0.0000 C   0  0  0  0  0  0  0  0  0  0  0  0
    0.3943   -1.2135    0.0000 C   0  0  0  0  0  0  0  0  0  0  0  0
    0.8578   -2.6401    0.0000 C   0  0  0  0  0  0  0  0  0  0  0  0
    2.3250   -2.9520    0.0000 O   0  0  0  0  0  0  0  0  0  0  0  0
   -0.1459   -3.7548    0.0000 N   0  0  0  0  0  0  0  0  0  0  0  0
    0.3177   -5.1814    0.0000 C   0  0  0  0  0  0  0  0  0  0  0  0
   -0.6860   -6.2961    0.0000 C   0  0  0  0  0  0  0  0  0  0  0  0
   -0.2225   -7.7227    0.0000 C   0  0  0  0  0  0  0  0  0  0  0  0
   -1.2262   -8.8374    0.0000 C   0  0  0  0  0  0  0  0  0  0  0  0
    1.2447   -8.0346    0.0000 C   0  0  0  0  0  0  0  0  0  0  0  0
    1.7849   -5.4933    0.0000 C   0  0  0  0  0  0  0  0  0  0  0  0
    2.7886   -4.3786    0.0000 O   0  0  0  0  0  0  0  0  0  0  0  0
    2.2484   -6.9199    0.0000 N   0  0  0  0  0  0  0  0  0  0  0  0
    3.7156   -7.2317    0.0000 C   0  0  0  0  0  0  0  0  0  0  0  0
    4.1791   -8.6583    0.0000 C   0  0  0  0  0  0  0  0  0  0  0  0
    5.6464   -8.9702    0.0000 C   0  0  0  0  0  0  0  0  0  0  0  0
    7.1136   -9.2821    0.0000 C   0  0  0  0  0  0  0  0  0  0  0  0
    4.7193   -6.1170    0.0000 C   0  0  0  0  0  0  0  0  0  0  0  0
    4.2558   -4.6904    0.0000 O   0  0  0  0  0  0  0  0  0  0  0  0
    6.1865   -6.4289    0.0000 O   0  0  0  0  0  0  0  0  0  0  0  0
  2  1  1  6
  2  3  1  0
  3  4  1  0
  4  5  1  0
  4  6  1  0
  2  7  1  0
  7  8  2  0
  7  9  1  0
  9 10  1  0
  9 11  1  0
 11 12  1  6
 12 13  1  0
 13 14  1  0
 13 15  1  0
 11 16  1  0
 16 17  2  0
 16 18  1  0
 18 19  1  0
 19 20  1  0
 20 21  1  0
 21 22  1  0
 22 23  1  6
 23 24  2  0
 23 25  1  0
 25 26  1  0
 26 27  1  1
 27 28  1  0
 28 29  1  0
 28 30  1  0
 26 31  1  0
 31 32  2  0
 31 33  1  0
 33 34  1  0
 34 35  1  6
 35 36  1  0
 36 37  3  0
 34 38  1  0
 38 39  2  0
 38 40  1  0
 22 18  1  0
M  END
$$$$

     RDKit          2D

 23 22  0  0  0  0  0  0  0  0999 V2000
    3.8971    2.2500    0.0000 N   0  0  0  0  0  0  0  0  0  0  0  0
    2.5981    3.0000    0.0000 C   0  0  0  0  0  0  0  0  0  0  0  0
    1.2990    2.2500    0.0000 C   0  0  0  0  0  0  0  0  0  0  0  0
    1.2990    0.7500    0.0000 C   0  0  0  0  0  0  0  0  0  0  0  0
    0.0000    0.0000    0.0000 C   0  0  0  0  0  0  0  0  0  0  0  0
    2.5981   -0.0000    0.0000 C   0  0  0  0  0  0  0  0  0  0  0  0
    2.5981    4.5000    0.0000 C   0  0  0  0  0  0  0  0  0  0  0  0
    1.2990    5.2500    0.0000 O   0  0  0  0  0  0  0  0  0  0  0  0
    3.8971    5.2500    0.0000 N   0  0  0  0  0  0  0  0  0  0  0  0
    3.8971    6.7500    0.0000 C   0  0  0  0  0  0  0  0  0  0  0  0
    5.1962    7.5000    0.0000 C   0  0  0  0  0  0  0  0  0  0  0  0
    5.1962    9.0000    0.0000 C   0  0  0  0  0  0  0  0  0  0  0  0
    6.4952    6.7500    0.0000 C   0  0  0  0  0  0  0  0  0  0  0  0
    2.5981    7.5000    0.0000 C   0  0  0  0  0  0  0  0  0  0  0  0
    1.2990    6.7500    0.0000 O   0  0  0  0  0  0  0  0  0  0  0  0
    2.5981    9.0000    0.0000 N   0  0  0  0  0  0  0  0  0  0  0  0
    1.2990    9.7500    0.0000 C   0  0  0  0  0  0  0  0  0  0  0  0
    1.2990   11.2500    0.0000 C   0  0  0  0  0  0  0  0  0  0  0  0
    0.0000   12.0000    0.0000 C   0  0  0  0  0  0  0  0  0  0  0  0
   -1.2990   12.7500    0.0000 C   0  0  0  0  0  0  0  0  0  0  0  0
    0.0000    9.0000    0.0000 C   0  0  0  0  0  0  0  0  0  0  0  0
    0.0000    7.5000    0.0000 O   0  0  0  0  0  0  0  0  0  0  0  0
   -1.2990    9.7500    0.0000 O   0  0  0  0  0  0  0  0  0  0  0  0
  2  1  1  1
  2  3  1  0
  3  4  1  0
  4  5  1  0
  4  6  1  0
  2  7  1  0
  7  8  2  0
  7  9  1  0
 10  9  1  6
 10 11  1  0
 11 12  1  0
 11 13  1  0
 10 14  1  0
 14 15  2  0
 14 16  1  0
 16 17  1  0
 17 18  1  6
 18 19  1  0
 19 20  3  0
 17 21  1  0
 21 22  2  0
 21 23  1  0
M  END
$$$$

     RDKit          2D

 23 22  0  0  0  0  0  0  0  0999 V2000
    3.8971    2.2500    0.0000 N   0  0  0  0  0  0  0  0  0  0  0  0
    2.5981    3.0000    0.0000 C   0  0  0  0  0  0  0  0  0  0  0  0
    1.2990    2.2500    0.0000 C   0  0  0  0  0  0  0  0  0  0  0  0
    1.2990    0.7500    0.0000 C   0  0  0  0  0  0  0  0  0  0  0  0
    0.0000    0.0000    0.0000 C   0  0  0  0  0  0  0  0  0  0  0  0
    2.5981   -0.0000    0.0000 C   0  0  0  0  0  0  0  0  0  0  0  0
    2.5981    4.5000    0.0000 C   0  0  0  0  0  0  0  0  0  0  0  0
    1.2990    5.2500    0.0000 O   0  0  0  0  0  0  0  0  0  0  0  0
    3.8971    5.2500    0.0000 N   0  0  0  0  0  0  0  0  0  0  0  0
    3.8971    6.7500    0.0000 C   0  0  0  0  0  0  0  0  0  0  0  0
    5.1962    7.5000    0.0000 C   0  0  0  0  0  0  0  0  0  0  0  0
    5.1962    9.0000    0.0000 C   0  0  0  0  0  0  0  0  0  0  0  0
    6.4952    6.7500    0.0000 C   0  0  0  0  0  0  0  0  0  0  0  0
    2.5981    7.5000    0.0000 C   0  0  0  0  0  0  0  0  0  0  0  0
    1.2990    6.7500    0.0000 O   0  0  0  0  0  0  0  0  0  0  0  0
    2.5981    9.0000    0.0000 N   0  0  0  0  0  0  0  0  0  0  0  0
    1.2990    9.7500    0.0000 C   0  0  0  0  0  0  0  0  0  0  0  0
    1.2990   11.2500    0.0000 C   0  0  0  0  0  0  0  0  0  0  0  0
    0.0000   12.0000    0.0000 C   0  0  0  0  0  0  0  0  0  0  0  0
   -1.2990   12.7500    0.0000 C   0  0  0  0  0  0  0  0  0  0  0  0
    0.0000    9.0000    0.0000 C   0  0  0  0  0  0  0  0  0  0  0  0
    0.0000    7.5000    0.0000 O   0  0  0  0  0  0  0  0  0  0  0  0
   -1.2990    9.7500    0.0000 O   0  0  0  0  0  0  0  0  0  0  0  0
  2  1  1  6
  2  3  1  0
  3  4  1  0
  4  5  1  0
  4  6  1  0
  2  7  1  0
  7  8  2  0
  7  9  1  0
 10  9  1  6
 10 11  1  0
 11 12  1  0
 11 13  1  0
 10 14  1  0
 14 15  2  0
 14 16  1  0
 16 17  1  0
 17 18  1  6
 18 19  1  0
 19 20  3  0
 17 21  1  0
 21 22  2  0
 21 23  1  0
M  END
$$$$

     RDKit          2D

 22 21  0  0  0  0  0  0  0  0999 V2000
    0.0000    3.0000    0.0000 N   0  0  0  0  0  0  0  0  0  0  0  0
    1.2990    2.2500    0.0000 C   0  0  0  0  0  0  0  0  0  0  0  0
    1.2990    0.7500    0.0000 C   0  0  0  0  0  0  0  0  0  0  0  0
    0.0000    0.0000    0.0000 C   0  0  0  0  0  0  0  0  0  0  0  0
    2.5981   -0.0000    0.0000 C   0  0  0  0  0  0  0  0  0  0  0  0
    2.5981    3.0000    0.0000 C   0  0  0  0  0  0  0  0  0  0  0  0
    3.8971    2.2500    0.0000 O   0  0  0  0  0  0  0  0  0  0  0  0
    2.5981    4.5000    0.0000 N   0  0  0  0  0  0  0  0  0  0  0  0
    3.8971    5.2500    0.0000 C   0  0  0  0  0  0  0  0  0  0  0  0
    3.8971    6.7500    0.0000 C   0  0  0  0  0  0  0  0  0  0  0  0
    5.1962    7.5000    0.0000 C   0  0  0  0  0  0  0  0  0  0  0  0
    2.5981    7.5000    0.0000 C   0  0  0  0  0  0  0  0  0  0  0  0
    5.1962    4.5000    0.0000 C   0  0  0  0  0  0  0  0  0  0  0  0
    5.1962    3.0000    0.0000 O   0  0  0  0  0  0  0  0  0  0  0  0
    6.4952    5.2500    0.0000 N   0  0  0  0  0  0  0  0  0  0  0  0
    7.7942    4.5000    0.0000 C   0  0  0  0  0  0  0  0  0  0  0  0
    9.0933    5.2500    0.0000 C   0  0  0  0  0  0  0  0  0  0  0  0
   10.3923    4.5000    0.0000 C   0  0  0  0  0  0  0  0  0  0  0  0
   11.6913    3.7500    0.0000 C   0  0  0  0  0  0  0  0  0  0  0  0
    7.7942    3.0000    0.0000 C   0  0  0  0  0  0  0  0  0  0  0  0
    6.4952    2.2500    0.0000 O   0  0  0  0  0  0  0  0  0  0  0  0
    9.0933    2.2500    0.0000 O   0  0  0  0  0  0  0  0  0  0  0  0
  2  1  1  6
  2  3  1  0
  3  4  1  0
  3  5  1  0
  2  6  1  0
  6  7  2  0
  6  8  1  0
  9  8  1  1
  9 10  1  0
 10 11  1  0
 10 12  1  0
  9 13  1  0
 13 14  2  0
 13 15  1  0
 15 16  1  0
 16 17  1  1
 17 18  1  0
 18 19  3  0
 16 20  1  0
 20 21  2  0
 20 22  1  0
M  END
$$$$

     RDKit          2D

 22 21  0  0  0  0  0  0  0  0999 V2000
    0.0000    3.0000    0.0000 N   0  0  0  0  0  0  0  0  0  0  0  0
    1.2990    2.2500    0.0000 C   0  0  0  0  0  0  0  0  0  0  0  0
    1.2990    0.7500    0.0000 C   0  0  0  0  0  0  0  0  0  0  0  0
    0.0000    0.0000    0.0000 C   0  0  0  0  0  0  0  0  0  0  0  0
    2.5981   -0.0000    0.0000 C   0  0  0  0  0  0  0  0  0  0  0  0
    2.5981    3.0000    0.0000 C   0  0  0  0  0  0  0  0  0  0  0  0
    3.8971    2.2500    0.0000 O   0  0  0  0  0  0  0  0  0  0  0  0
    2.5981    4.5000    0.0000 N   0  0  0  0  0  0  0  0  0  0  0  0
    3.8971    5.2500    0.0000 C   0  0  0  0  0  0  0  0  0  0  0  0
    3.8971    6.7500    0.0000 C   0  0  0  0  0  0  0  0  0  0  0  0
    5.1962    7.5000    0.0000 C   0  0  0  0  0  0  0  0  0  0  0  0
    2.5981    7.5000    0.0000 C   0  0  0  0  0  0  0  0  0  0  0  0
    5.1962    4.5000    0.0000 C   0  0  0  0  0  0  0  0  0  0  0  0
    5.1962    3.0000    0.0000 O   0  0  0  0  0  0  0  0  0  0  0  0
    6.4952    5.2500    0.0000 N   0  0  0  0  0  0  0  0  0  0  0  0
    7.7942    4.5000    0.0000 C   0  0  0  0  0  0  0  0  0  0  0  0
    9.0933    5.2500    0.0000 C   0  0  0  0  0  0  0  0  0  0  0  0
   10.3923    4.5000    0.0000 C   0  0  0  0  0  0  0  0  0  0  0  0
   11.6913    3.7500    0.0000 C   0  0  0  0  0  0  0  0  0  0  0  0
    7.7942    3.0000    0.0000 C   0  0  0  0  0  0  0  0  0  0  0  0
    6.4952    2.2500    0.0000 O   0  0  0  0  0  0  0  0  0  0  0  0
    9.0933    2.2500    0.0000 O   0  0  0  0  0  0  0  0  0  0  0  0
  2  1  1  1
  2  3  1  0
  3  4  1  0
  3  5  1  0
  2  6  1  0
  6  7  2  0
  6  8  1  0
  9  8  1  1
  9 10  1  0
 10 11  1  0
 10 12  1  0
  9 13  1  0
 13 14  2  0
 13 15  1  0
 15 16  1  0
 16 17  1  1
 17 18  1  0
 18 19  3  0
 16 20  1  0
 20 21  2  0
 20 22  1  0
M  END
$$$$

     RDKit          2D

 24 23  0  0  0  0  0  0  0  0999 V2000
    1.2990    0.7500    0.0000 N   0  0  0  0  0  0  0  0  0  0  0  0
    0.0000    0.0000    0.0000 C   0  0  0  0  0  0  0  0  0  0  0  0
    2.5981   -0.0000    0.0000 C   0  0  0  0  0  0  0  0  0  0  0  0
    3.8971    0.7500    0.0000 C   0  0  0  0  0  0  0  0  0  0  0  0
    5.1962   -0.0000    0.0000 C   0  0  0  0  0  0  0  0  0  0  0  0
    6.4952    0.7500    0.0000 C   0  0  0  0  0  0  0  0  0  0  0  0
    5.1962   -1.5000    0.0000 C   0  0  0  0  0  0  0  0  0  0  0  0
    2.5981   -1.5000    0.0000 C   0  0  0  0  0  0  0  0  0  0  0  0
    1.2990   -2.2500    0.0000 O   0  0  0  0  0  0  0  0  0  0  0  0
    3.8971   -2.2500    0.0000 N   0  0  0  0  0  0  0  0  0  0  0  0
    3.8971   -3.7500    0.0000 C   0  0  0  0  0  0  0  0  0  0  0  0
    5.1962   -4.5000    0.0000 C   0  0  0  0  0  0  0  0  0  0  0  0
    5.1962   -6.0000    0.0000 C   0  0  0  0  0  0  0  0  0  0  0  0
    6.4952   -3.7500    0.0000 C   0  0  0  0  0  0  0  0  0  0  0  0
    2.5981   -4.5000    0.0000 C   0  0  0  0  0  0  0  0  0  0  0  0
    1.2990   -3.7500    0.0000 O   0  0  0  0  0  0  0  0  0  0  0  0
    2.5981   -6.0000    0.0000 N   0  0  0  0  0  0  0  0  0  0  0  0
    1.2990   -6.7500    0.0000 C   0  0  0  0  0  0  0  0  0  0  0  0
    1.2990   -8.2500    0.0000 C   0  0  0  0  0  0  0  0  0  0  0  0
    0.0000   -9.0000    0.0000 C   0  0  0  0  0  0  0  0  0  0  0  0
   -1.2990   -9.7500    0.0000 C   0  0  0  0  0  0  0  0  0  0  0  0
    0.0000   -6.0000    0.0000 C   0  0  0  0  0  0  0  0  0  0  0  0
    0.0000   -4.5000    0.0000 O   0  0  0  0  0  0  0  0  0  0  0  0
   -1.2990   -6.7500    0.0000 O   0  0  0  0  0  0  0  0  0  0  0  0
  1  2  1  0
  1  3  1  0
  3  4  1  1
  4  5  1  0
  5  6  1  0
  5  7  1  0
  3  8  1  0
  8  9  2  0
  8 10  1  0
 11 10  1  1
 11 12  1  0
 12 13  1  0
 12 14  1  0
 11 15  1  0
 15 16  2  0
 15 17  1  0
 17 18  1  0
 18 19  1  1
 19 20  1  0
 20 21  3  0
 18 22  1  0
 22 23  2  0
 22 24  1  0
M  END
$$$$

     RDKit          2D

 24 23  0  0  0  0  0  0  0  0999 V2000
    1.2990    0.7500    0.0000 N   0  0  0  0  0  0  0  0  0  0  0  0
    0.0000    0.0000    0.0000 C   0  0  0  0  0  0  0  0  0  0  0  0
    2.5981   -0.0000    0.0000 C   0  0  0  0  0  0  0  0  0  0  0  0
    3.8971    0.7500    0.0000 C   0  0  0  0  0  0  0  0  0  0  0  0
    5.1962   -0.0000    0.0000 C   0  0  0  0  0  0  0  0  0  0  0  0
    6.4952    0.7500    0.0000 C   0  0  0  0  0  0  0  0  0  0  0  0
    5.1962   -1.5000    0.0000 C   0  0  0  0  0  0  0  0  0  0  0  0
    2.5981   -1.5000    0.0000 C   0  0  0  0  0  0  0  0  0  0  0  0
    1.2990   -2.2500    0.0000 O   0  0  0  0  0  0  0  0  0  0  0  0
    3.8971   -2.2500    0.0000 N   0  0  0  0  0  0  0  0  0  0  0  0
    3.8971   -3.7500    0.0000 C   0  0  0  0  0  0  0  0  0  0  0  0
    5.1962   -4.5000    0.0000 C   0  0  0  0  0  0  0  0  0  0  0  0
    5.1962   -6.0000    0.0000 C   0  0  0  0  0  0  0  0  0  0  0  0
    6.4952   -3.7500    0.0000 C   0  0  0  0  0  0  0  0  0  0  0  0
    2.5981   -4.5000    0.0000 C   0  0  0  0  0  0  0  0  0  0  0  0
    1.2990   -3.7500    0.0000 O   0  0  0  0  0  0  0  0  0  0  0  0
    2.5981   -6.0000    0.0000 N   0  0  0  0  0  0  0  0  0  0  0  0
    1.2990   -6.7500    0.0000 C   0  0  0  0  0  0  0  0  0  0  0  0
    1.2990   -8.2500    0.0000 C   0  0  0  0  0  0  0  0  0  0  0  0
    0.0000   -9.0000    0.0000 C   0  0  0  0  0  0  0  0  0  0  0  0
   -1.2990   -9.7500    0.0000 C   0  0  0  0  0  0  0  0  0  0  0  0
    0.0000   -6.0000    0.0000 C   0  0  0  0  0  0  0  0  0  0  0  0
    0.0000   -4.5000    0.0000 O   0  0  0  0  0  0  0  0  0  0  0  0
   -1.2990   -6.7500    0.0000 O   0  0  0  0  0  0  0  0  0  0  0  0
  1  2  1  0
  1  3  1  0
  3  4  1  6
  4  5  1  0
  5  6  1  0
  5  7  1  0
  3  8  1  0
  8  9  2  0
  8 10  1  0
 11 10  1  1
 11 12  1  0
 12 13  1  0
 12 14  1  0
 11 15  1  0
 15 16  2  0
 15 17  1  0
 17 18  1  0
 18 19  1  1
 19 20  1  0
 20 21  3  0
 18 22  1  0
 22 23  2  0
 22 24  1  0
M  END
$$$$

     RDKit          2D

 26 26  0  0  0  0  0  0  0  0999 V2000
    3.0000   -2.5981    0.0000 N   0  0  0  0  0  0  0  0  0  0  0  0
    3.7500   -1.2990    0.0000 C   0  0  0  0  0  0  0  0  0  0  0  0
    3.0000    0.0000    0.0000 C   0  0  0  0  0  0  0  0  0  0  0  0
    1.5000    0.0000    0.0000 C   0  0  0  0  0  0  0  0  0  0  0  0
    0.7500   -1.2990    0.0000 C   0  0  0  0  0  0  0  0  0  0  0  0
   -0.7500   -1.2990    0.0000 C   0  0  0  0  0  0  0  0  0  0  0  0
   -1.5000    0.0000    0.0000 C   0  0  0  0  0  0  0  0  0  0  0  0
   -0.7500    1.2990    0.0000 C   0  0  0  0  0  0  0  0  0  0  0  0
    0.7500    1.2990    0.0000 C   0  0  0  0  0  0  0  0  0  0  0  0
    5.2500   -1.2990    0.0000 C   0  0  0  0  0  0  0  0  0  0  0  0
    6.0000    0.0000    0.0000 O   0  0  0  0  0  0  0  0  0  0  0  0
    6.0000   -2.5981    0.0000 N   0  0  0  0  0  0  0  0  0  0  0  0
    7.5000   -2.5981    0.0000 C   0  0  0  0  0  0  0  0  0  0  0  0
    8.2500   -3.8971    0.0000 C   0  0  0  0  0  0  0  0  0  0  0  0
    9.7500   -3.8971    0.0000 C   0  0  0  0  0  0  0  0  0  0  0  0
    7.5000   -5.1962    0.0000 C   0  0  0  0  0  0  0  0  0  0  0  0
    8.2500   -1.2990    0.0000 C   0  0  0  0  0  0  0  0  0  0  0  0
    7.5000    0.0000    0.0000 O   0  0  0  0  0  0  0  0  0  0  0  0
    9.7500   -1.2990    0.0000 N   0  0  0  0  0  0  0  0  0  0  0  0
   10.5000    0.0000    0.0000 C   0  0  0  0  0  0  0  0  0  0  0  0
   12.0000    0.0000    0.0000 C   0  0  0  0  0  0  0  0  0  0  0  0
   12.7500    1.2990    0.0000 C   0  0  0  0  0  0  0  0  0  0  0  0
   13.5000    2.5981    0.0000 C   0  0  0  0  0  0  0  0  0  0  0  0
    9.7500    1.2990    0.0000 C   0  0  0  0  0  0  0  0  0  0  0  0
    8.2500    1.2990    0.0000 O   0  0  0  0  0  0  0  0  0  0  0  0
   10.5000    2.5981    0.0000 O   0  0  0  0  0  0  0  0  0  0  0  0
  2  1  1  1
  2  3  1  0
  3  4  1  0
  4  5  2  0
  5  6  1  0
  6  7  2  0
  7  8  1  0
  8  9  2  0
  2 10  1  0
 10 11  2  0
 10 12  1  0
 13 12  1  6
 13 14  1  0
 14 15  1  0
 14 16  1  0
 13 17  1  0
 17 18  2  0
 17 19  1  0
 19 20  1  0
 20 21  1  6
 21 22  1  0
 22 23  3  0
 20 24  1  0
 24 25  2  0
 24 26  1  0
  9  4  1  0
M  END
$$$$

     RDKit          2D

 26 26  0  0  0  0  0  0  0  0999 V2000
    3.0000   -2.5981    0.0000 N   0  0  0  0  0  0  0  0  0  0  0  0
    3.7500   -1.2990    0.0000 C   0  0  0  0  0  0  0  0  0  0  0  0
    3.0000    0.0000    0.0000 C   0  0  0  0  0  0  0  0  0  0  0  0
    1.5000    0.0000    0.0000 C   0  0  0  0  0  0  0  0  0  0  0  0
    0.7500   -1.2990    0.0000 C   0  0  0  0  0  0  0  0  0  0  0  0
   -0.7500   -1.2990    0.0000 C   0  0  0  0  0  0  0  0  0  0  0  0
   -1.5000    0.0000    0.0000 C   0  0  0  0  0  0  0  0  0  0  0  0
   -0.7500    1.2990    0.0000 C   0  0  0  0  0  0  0  0  0  0  0  0
    0.7500    1.2990    0.0000 C   0  0  0  0  0  0  0  0  0  0  0  0
    5.2500   -1.2990    0.0000 C   0  0  0  0  0  0  0  0  0  0  0  0
    6.0000    0.0000    0.0000 O   0  0  0  0  0  0  0  0  0  0  0  0
    6.0000   -2.5981    0.0000 N   0  0  0  0  0  0  0  0  0  0  0  0
    7.5000   -2.5981    0.0000 C   0  0  0  0  0  0  0  0  0  0  0  0
    8.2500   -3.8971    0.0000 C   0  0  0  0  0  0  0  0  0  0  0  0
    9.7500   -3.8971    0.0000 C   0  0  0  0  0  0  0  0  0  0  0  0
    7.5000   -5.1962    0.0000 C   0  0  0  0  0  0  0  0  0  0  0  0
    8.2500   -1.2990    0.0000 C   0  0  0  0  0  0  0  0  0  0  0  0
    7.5000    0.0000    0.0000 O   0  0  0  0  0  0  0  0  0  0  0  0
    9.7500   -1.2990    0.0000 N   0  0  0  0  0  0  0  0  0  0  0  0
   10.5000    0.0000    0.0000 C   0  0  0  0  0  0  0  0  0  0  0  0
   12.0000    0.0000    0.0000 C   0  0  0  0  0  0  0  0  0  0  0  0
   12.7500    1.2990    0.0000 C   0  0  0  0  0  0  0  0  0  0  0  0
   13.5000    2.5981    0.0000 C   0  0  0  0  0  0  0  0  0  0  0  0
    9.7500    1.2990    0.0000 C   0  0  0  0  0  0  0  0  0  0  0  0
    8.2500    1.2990    0.0000 O   0  0  0  0  0  0  0  0  0  0  0  0
   10.5000    2.5981    0.0000 O   0  0  0  0  0  0  0  0  0  0  0  0
  2  1  1  6
  2  3  1  0
  3  4  1  0
  4  5  2  0
  5  6  1  0
  6  7  2  0
  7  8  1  0
  8  9  2  0
  2 10  1  0
 10 11  2  0
 10 12  1  0
 13 12  1  6
 13 14  1  0
 14 15  1  0
 14 16  1  0
 13 17  1  0
 17 18  2  0
 17 19  1  0
 19 20  1  0
 20 21  1  6
 21 22  1  0
 22 23  3  0
 20 24  1  0
 24 25  2  0
 24 26  1  0
  9  4  1  0
M  END
$$$$

     RDKit          2D

 27 27  0  0  0  0  0  0  0  0999 V2000
    3.0000   -2.5981    0.0000 N   0  0  0  0  0  0  0  0  0  0  0  0
    3.7500   -3.8971    0.0000 C   0  0  0  0  0  0  0  0  0  0  0  0
    3.7500   -1.2990    0.0000 C   0  0  0  0  0  0  0  0  0  0  0  0
    3.0000    0.0000    0.0000 C   0  0  0  0  0  0  0  0  0  0  0  0
    1.5000    0.0000    0.0000 C   0  0  0  0  0  0  0  0  0  0  0  0
    0.7500   -1.2990    0.0000 C   0  0  0  0  0  0  0  0  0  0  0  0
   -0.7500   -1.2990    0.0000 C   0  0  0  0  0  0  0  0  0  0  0  0
   -1.5000    0.0000    0.0000 C   0  0  0  0  0  0  0  0  0  0  0  0
   -0.7500    1.2990    0.0000 C   0  0  0  0  0  0  0  0  0  0  0  0
    0.7500    1.2990    0.0000 C   0  0  0  0  0  0  0  0  0  0  0  0
    5.2500   -1.2990    0.0000 C   0  0  0  0  0  0  0  0  0  0  0  0
    6.0000    0.0000    0.0000 O   0  0  0  0  0  0  0  0  0  0  0  0
    6.0000   -2.5981    0.0000 N   0  0  0  0  0  0  0  0  0  0  0  0
    7.5000   -2.5981    0.0000 C   0  0  0  0  0  0  0  0  0  0  0  0
    8.2500   -3.8971    0.0000 C   0  0  0  0  0  0  0  0  0  0  0  0
    9.7500   -3.8971    0.0000 C   0  0  0  0  0  0  0  0  0  0  0  0
    7.5000   -5.1962    0.0000 C   0  0  0  0  0  0  0  0  0  0  0  0
    8.2500   -1.2990    0.0000 C   0  0  0  0  0  0  0  0  0  0  0  0
    7.5000    0.0000    0.0000 O   0  0  0  0  0  0  0  0  0  0  0  0
    9.7500   -1.2990    0.0000 N   0  0  0  0  0  0  0  0  0  0  0  0
   10.5000    0.0000    0.0000 C   0  0  0  0  0  0  0  0  0  0  0  0
   12.0000    0.0000    0.0000 C   0  0  0  0  0  0  0  0  0  0  0  0
   12.7500    1.2990    0.0000 C   0  0  0  0  0  0  0  0  0  0  0  0
   13.5000    2.5981    0.0000 C   0  0  0  0  0  0  0  0  0  0  0  0
    9.7500    1.2990    0.0000 C   0  0  0  0  0  0  0  0  0  0  0  0
    8.2500    1.2990    0.0000 O   0  0  0  0  0  0  0  0  0  0  0  0
   10.5000    2.5981    0.0000 O   0  0  0  0  0  0  0  0  0  0  0  0
  1  2  1  0
  1  3  1  0
  3  4  1  1
  4  5  1  0
  5  6  2  0
  6  7  1  0
  7  8  2  0
  8  9  1  0
  9 10  2  0
  3 11  1  0
 11 12  2  0
 11 13  1  0
 14 13  1  6
 14 15  1  0
 15 16  1  0
 15 17  1  0
 14 18  1  0
 18 19  2  0
 18 20  1  0
 20 21  1  0
 21 22  1  6
 22 23  1  0
 23 24  3  0
 21 25  1  0
 25 26  2  0
 25 27  1  0
 10  5  1  0
M  END
$$$$

     RDKit          2D

 27 27  0  0  0  0  0  0  0  0999 V2000
    3.0000   -2.5981    0.0000 N   0  0  0  0  0  0  0  0  0  0  0  0
    3.7500   -3.8971    0.0000 C   0  0  0  0  0  0  0  0  0  0  0  0
    3.7500   -1.2990    0.0000 C   0  0  0  0  0  0  0  0  0  0  0  0
    3.0000    0.0000    0.0000 C   0  0  0  0  0  0  0  0  0  0  0  0
    1.5000    0.0000    0.0000 C   0  0  0  0  0  0  0  0  0  0  0  0
    0.7500   -1.2990    0.0000 C   0  0  0  0  0  0  0  0  0  0  0  0
   -0.7500   -1.2990    0.0000 C   0  0  0  0  0  0  0  0  0  0  0  0
   -1.5000    0.0000    0.0000 C   0  0  0  0  0  0  0  0  0  0  0  0
   -0.7500    1.2990    0.0000 C   0  0  0  0  0  0  0  0  0  0  0  0
    0.7500    1.2990    0.0000 C   0  0  0  0  0  0  0  0  0  0  0  0
    5.2500   -1.2990    0.0000 C   0  0  0  0  0  0  0  0  0  0  0  0
    6.0000    0.0000    0.0000 O   0  0  0  0  0  0  0  0  0  0  0  0
    6.0000   -2.5981    0.0000 N   0  0  0  0  0  0  0  0  0  0  0  0
    7.5000   -2.5981    0.0000 C   0  0  0  0  0  0  0  0  0  0  0  0
    8.2500   -3.8971    0.0000 C   0  0  0  0  0  0  0  0  0  0  0  0
    9.7500   -3.8971    0.0000 C   0  0  0  0  0  0  0  0  0  0  0  0
    7.5000   -5.1962    0.0000 C   0  0  0  0  0  0  0  0  0  0  0  0
    8.2500   -1.2990    0.0000 C   0  0  0  0  0  0  0  0  0  0  0  0
    7.5000    0.0000    0.0000 O   0  0  0  0  0  0  0  0  0  0  0  0
    9.7500   -1.2990    0.0000 N   0  0  0  0  0  0  0  0  0  0  0  0
   10.5000    0.0000    0.0000 C   0  0  0  0  0  0  0  0  0  0  0  0
   12.0000    0.0000    0.0000 C   0  0  0  0  0  0  0  0  0  0  0  0
   12.7500    1.2990    0.0000 C   0  0  0  0  0  0  0  0  0  0  0  0
   13.5000    2.5981    0.0000 C   0  0  0  0  0  0  0  0  0  0  0  0
    9.7500    1.2990    0.0000 C   0  0  0  0  0  0  0  0  0  0  0  0
    8.2500    1.2990    0.0000 O   0  0  0  0  0  0  0  0  0  0  0  0
   10.5000    2.5981    0.0000 O   0  0  0  0  0  0  0  0  0  0  0  0
  1  2  1  0
  1  3  1  0
  3  4  1  6
  4  5  1  0
  5  6  2  0
  6  7  1  0
  7  8  2  0
  8  9  1  0
  9 10  2  0
  3 11  1  0
 11 12  2  0
 11 13  1  0
 14 13  1  6
 14 15  1  0
 15 16  1  0
 15 17  1  0
 14 18  1  0
 18 19  2  0
 18 20  1  0
 20 21  1  0
 21 22  1  6
 22 23  1  0
 23 24  3  0
 21 25  1  0
 25 26  2  0
 25 27  1  0
 10  5  1  0
M  END
$$$$

     RDKit          2D

 22 21  0  0  0  0  0  0  0  0999 V2000
    2.5981   -1.5000    0.0000 N   0  0  0  0  0  0  0  0  0  0  0  0
    2.5981   -0.0000    0.0000 C   0  0  0  0  0  0  0  0  0  0  0  0
    1.2990    0.7500    0.0000 C   0  0  0  0  0  0  0  0  0  0  0  0
    1.2990    2.2500    0.0000 O   0  0  0  0  0  0  0  0  0  0  0  0
    0.0000    0.0000    0.0000 C   0  0  0  0  0  0  0  0  0  0  0  0
    3.8971    0.7500    0.0000 C   0  0  0  0  0  0  0  0  0  0  0  0
    3.8971    2.2500    0.0000 O   0  0  0  0  0  0  0  0  0  0  0  0
    5.1962   -0.0000    0.0000 N   0  0  0  0  0  0  0  0  0  0  0  0
    6.4952    0.7500    0.0000 C   0  0  0  0  0  0  0  0  0  0  0  0
    7.7942   -0.0000    0.0000 C   0  0  0  0  0  0  0  0  0  0  0  0
    9.0933    0.7500    0.0000 C   0  0  0  0  0  0  0  0  0  0  0  0
    7.7942   -1.5000    0.0000 C   0  0  0  0  0  0  0  0  0  0  0  0
    6.4952    2.2500    0.0000 C   0  0  0  0  0  0  0  0  0  0  0  0
    5.1962    3.0000    0.0000 O   0  0  0  0  0  0  0  0  0  0  0  0
    7.7942    3.0000    0.0000 N   0  0  0  0  0  0  0  0  0  0  0  0
    7.7942    4.5000    0.0000 C   0  0  0  0  0  0  0  0  0  0  0  0
    9.0933    5.2500    0.0000 C   0  0  0  0  0  0  0  0  0  0  0  0
    9.0933    6.7500    0.0000 C   0  0  0  0  0  0  0  0  0  0  0  0
    9.0933    8.2500    0.0000 C   0  0  0  0  0  0  0  0  0  0  0  0
    6.4952    5.2500    0.0000 C   0  0  0  0  0  0  0  0  0  0  0  0
    5.1962    4.5000    0.0000 O   0  0  0  0  0  0  0  0  0  0  0  0
    6.4952    6.7500    0.0000 O   0  0  0  0  0  0  0  0  0  0  0  0
  2  1  1  1
  2  3  1  0
  3  4  1  0
  3  5  1  1
  2  6  1  0
  6  7  2  0
  6  8  1  0
  9  8  1  6
  9 10  1  0
 10 11  1  0
 10 12  1  0
  9 13  1  0
 13 14  2  0
 13 15  1  0
 15 16  1  0
 16 17  1  6
 17 18  1  0
 18 19  3  0
 16 20  1  0
 20 21  2  0
 20 22  1  0
M  END
$$$$

     RDKit          2D

 22 21  0  0  0  0  0  0  0  0999 V2000
    2.5981   -1.5000    0.0000 N   0  0  0  0  0  0  0  0  0  0  0  0
    2.5981   -0.0000    0.0000 C   0  0  0  0  0  0  0  0  0  0  0  0
    1.2990    0.7500    0.0000 C   0  0  0  0  0  0  0  0  0  0  0  0
    1.2990    2.2500    0.0000 O   0  0  0  0  0  0  0  0  0  0  0  0
    0.0000    0.0000    0.0000 C   0  0  0  0  0  0  0  0  0  0  0  0
    3.8971    0.7500    0.0000 C   0  0  0  0  0  0  0  0  0  0  0  0
    3.8971    2.2500    0.0000 O   0  0  0  0  0  0  0  0  0  0  0  0
    5.1962   -0.0000    0.0000 N   0  0  0  0  0  0  0  0  0  0  0  0
    6.4952    0.7500    0.0000 C   0  0  0  0  0  0  0  0  0  0  0  0
    7.7942   -0.0000    0.0000 C   0  0  0  0  0  0  0  0  0  0  0  0
    9.0933    0.7500    0.0000 C   0  0  0  0  0  0  0  0  0  0  0  0
    7.7942   -1.5000    0.0000 C   0  0  0  0  0  0  0  0  0  0  0  0
    6.4952    2.2500    0.0000 C   0  0  0  0  0  0  0  0  0  0  0  0
    5.1962    3.0000    0.0000 O   0  0  0  0  0  0  0  0  0  0  0  0
    7.7942    3.0000    0.0000 N   0  0  0  0  0  0  0  0  0  0  0  0
    7.7942    4.5000    0.0000 C   0  0  0  0  0  0  0  0  0  0  0  0
    9.0933    5.2500    0.0000 C   0  0  0  0  0  0  0  0  0  0  0  0
    9.0933    6.7500    0.0000 C   0  0  0  0  0  0  0  0  0  0  0  0
    9.0933    8.2500    0.0000 C   0  0  0  0  0  0  0  0  0  0  0  0
    6.4952    5.2500    0.0000 C   0  0  0  0  0  0  0  0  0  0  0  0
    5.1962    4.5000    0.0000 O   0  0  0  0  0  0  0  0  0  0  0  0
    6.4952    6.7500    0.0000 O   0  0  0  0  0  0  0  0  0  0  0  0
  2  1  1  6
  2  3  1  0
  3  4  1  0
  3  5  1  1
  2  6  1  0
  6  7  2  0
  6  8  1  0
  9  8  1  6
  9 10  1  0
 10 11  1  0
 10 12  1  0
  9 13  1  0
 13 14  2  0
 13 15  1  0
 15 16  1  0
 16 17  1  6
 17 18  1  0
 18 19  3  0
 16 20  1  0
 20 21  2  0
 20 22  1  0
M  END
$$$$

     RDKit          2D

 23 22  0  0  0  0  0  0  0  0999 V2000
    1.2990    0.7500    0.0000 N   0  0  0  0  0  0  0  0  0  0  0  0
    0.0000    0.0000    0.0000 C   0  0  0  0  0  0  0  0  0  0  0  0
    2.5981   -0.0000    0.0000 C   0  0  0  0  0  0  0  0  0  0  0  0
    3.8971    0.7500    0.0000 C   0  0  0  0  0  0  0  0  0  0  0  0
    3.8971    2.2500    0.0000 O   0  0  0  0  0  0  0  0  0  0  0  0
    5.1962   -0.0000    0.0000 C   0  0  0  0  0  0  0  0  0  0  0  0
    2.5981   -1.5000    0.0000 C   0  0  0  0  0  0  0  0  0  0  0  0
    1.2990   -2.2500    0.0000 O   0  0  0  0  0  0  0  0  0  0  0  0
    3.8971   -2.2500    0.0000 N   0  0  0  0  0  0  0  0  0  0  0  0
    3.8971   -3.7500    0.0000 C   0  0  0  0  0  0  0  0  0  0  0  0
    5.1962   -4.5000    0.0000 C   0  0  0  0  0  0  0  0  0  0  0  0
    5.1962   -6.0000    0.0000 C   0  0  0  0  0  0  0  0  0  0  0  0
    6.4952   -3.7500    0.0000 C   0  0  0  0  0  0  0  0  0  0  0  0
    2.5981   -4.5000    0.0000 C   0  0  0  0  0  0  0  0  0  0  0  0
    1.2990   -3.7500    0.0000 O   0  0  0  0  0  0  0  0  0  0  0  0
    2.5981   -6.0000    0.0000 N   0  0  0  0  0  0  0  0  0  0  0  0
    1.2990   -6.7500    0.0000 C   0  0  0  0  0  0  0  0  0  0  0  0
    1.2990   -8.2500    0.0000 C   0  0  0  0  0  0  0  0  0  0  0  0
    0.0000   -9.0000    0.0000 C   0  0  0  0  0  0  0  0  0  0  0  0
   -1.2990   -9.7500    0.0000 C   0  0  0  0  0  0  0  0  0  0  0  0
    0.0000   -6.0000    0.0000 C   0  0  0  0  0  0  0  0  0  0  0  0
    0.0000   -4.5000    0.0000 O   0  0  0  0  0  0  0  0  0  0  0  0
   -1.2990   -6.7500    0.0000 O   0  0  0  0  0  0  0  0  0  0  0  0
  1  2  1  0
  3  1  1  1
  3  4  1  0
  4  5  1  0
  4  6  1  6
  3  7  1  0
  7  8  2  0
  7  9  1  0
 10  9  1  1
 10 11  1  0
 11 12  1  0
 11 13  1  0
 10 14  1  0
 14 15  2  0
 14 16  1  0
 16 17  1  0
 17 18  1  1
 18 19  1  0
 19 20  3  0
 17 21  1  0
 21 22  2  0
 21 23  1  0
M  END
$$$$

     RDKit          2D

 23 22  0  0  0  0  0  0  0  0999 V2000
    1.2990    0.7500    0.0000 N   0  0  0  0  0  0  0  0  0  0  0  0
    0.0000    0.0000    0.0000 C   0  0  0  0  0  0  0  0  0  0  0  0
    2.5981   -0.0000    0.0000 C   0  0  0  0  0  0  0  0  0  0  0  0
    3.8971    0.7500    0.0000 C   0  0  0  0  0  0  0  0  0  0  0  0
    3.8971    2.2500    0.0000 O   0  0  0  0  0  0  0  0  0  0  0  0
    5.1962   -0.0000    0.0000 C   0  0  0  0  0  0  0  0  0  0  0  0
    2.5981   -1.5000    0.0000 C   0  0  0  0  0  0  0  0  0  0  0  0
    1.2990   -2.2500    0.0000 O   0  0  0  0  0  0  0  0  0  0  0  0
    3.8971   -2.2500    0.0000 N   0  0  0  0  0  0  0  0  0  0  0  0
    3.8971   -3.7500    0.0000 C   0  0  0  0  0  0  0  0  0  0  0  0
    5.1962   -4.5000    0.0000 C   0  0  0  0  0  0  0  0  0  0  0  0
    5.1962   -6.0000    0.0000 C   0  0  0  0  0  0  0  0  0  0  0  0
    6.4952   -3.7500    0.0000 C   0  0  0  0  0  0  0  0  0  0  0  0
    2.5981   -4.5000    0.0000 C   0  0  0  0  0  0  0  0  0  0  0  0
    1.2990   -3.7500    0.0000 O   0  0  0  0  0  0  0  0  0  0  0  0
    2.5981   -6.0000    0.0000 N   0  0  0  0  0  0  0  0  0  0  0  0
    1.2990   -6.7500    0.0000 C   0  0  0  0  0  0  0  0  0  0  0  0
    1.2990   -8.2500    0.0000 C   0  0  0  0  0  0  0  0  0  0  0  0
    0.0000   -9.0000    0.0000 C   0  0  0  0  0  0  0  0  0  0  0  0
   -1.2990   -9.7500    0.0000 C   0  0  0  0  0  0  0  0  0  0  0  0
    0.0000   -6.0000    0.0000 C   0  0  0  0  0  0  0  0  0  0  0  0
    0.0000   -4.5000    0.0000 O   0  0  0  0  0  0  0  0  0  0  0  0
   -1.2990   -6.7500    0.0000 O   0  0  0  0  0  0  0  0  0  0  0  0
  1  2  1  0
  3  1  1  6
  3  4  1  0
  4  5  1  0
  4  6  1  6
  3  7  1  0
  7  8  2  0
  7  9  1  0
 10  9  1  1
 10 11  1  0
 11 12  1  0
 11 13  1  0
 10 14  1  0
 14 15  2  0
 14 16  1  0
 16 17  1  0
 17 18  1  1
 18 19  1  0
 19 20  3  0
 17 21  1  0
 21 22  2  0
 21 23  1  0
M  END
$$$$

     RDKit          2D

 23 22  0  0  0  0  0  0  0  0999 V2000
    2.5981    3.0000    0.0000 N   0  0  0  0  0  0  0  0  0  0  0  0
    1.2990    2.2500    0.0000 C   0  0  0  0  0  0  0  0  0  0  0  0
    1.2990    0.7500    0.0000 C   0  0  0  0  0  0  0  0  0  0  0  0
    0.0000    0.0000    0.0000 C   0  0  0  0  0  0  0  0  0  0  0  0
    2.5981   -0.0000    0.0000 C   0  0  0  0  0  0  0  0  0  0  0  0
    2.5981    4.5000    0.0000 C   0  0  0  0  0  0  0  0  0  0  0  0
    3.8971    5.2500    0.0000 C   0  0  0  0  0  0  0  0  0  0  0  0
    5.1962    4.5000    0.0000 O   0  0  0  0  0  0  0  0  0  0  0  0
    3.8971    6.7500    0.0000 N   0  0  0  0  0  0  0  0  0  0  0  0
    5.1962    7.5000    0.0000 C   0  0  0  0  0  0  0  0  0  0  0  0
    5.1962    9.0000    0.0000 C   0  0  0  0  0  0  0  0  0  0  0  0
    6.4952    9.7500    0.0000 C   0  0  0  0  0  0  0  0  0  0  0  0
    3.8971    9.7500    0.0000 C   0  0  0  0  0  0  0  0  0  0  0  0
    6.4952    6.7500    0.0000 C   0  0  0  0  0  0  0  0  0  0  0  0
    6.4952    5.2500    0.0000 O   0  0  0  0  0  0  0  0  0  0  0  0
    7.7942    7.5000    0.0000 N   0  0  0  0  0  0  0  0  0  0  0  0
    9.0933    6.7500    0.0000 C   0  0  0  0  0  0  0  0  0  0  0  0
   10.3923    7.5000    0.0000 C   0  0  0  0  0  0  0  0  0  0  0  0
   11.6913    6.7500    0.0000 C   0  0  0  0  0  0  0  0  0  0  0  0
   12.9904    6.0000    0.0000 C   0  0  0  0  0  0  0  0  0  0  0  0
    9.0933    5.2500    0.0000 C   0  0  0  0  0  0  0  0  0  0  0  0
    7.7942    4.5000    0.0000 O   0  0  0  0  0  0  0  0  0  0  0  0
   10.3923    4.5000    0.0000 O   0  0  0  0  0  0  0  0  0  0  0  0
  1  2  1  0
  2  3  1  0
  3  4  1  0
  3  5  1  0
  1  6  1  0
  6  7  1  0
  7  8  2  0
  7  9  1  0
 10  9  1  1
 10 11  1  0
 11 12  1  0
 11 13  1  0
 10 14  1  0
 14 15  2  0
 14 16  1  0
 16 17  1  0
 17 18  1  1
 18 19  1  0
 19 20  3  0
 17 21  1  0
 21 22  2  0
 21 23  1  0
M  END
$$$$

     RDKit          2D

 26 25  0  0  0  0  0  0  0  0999 V2000
    3.8971    6.7500    0.0000 N   0  0  0  0  0  0  0  0  0  0  0  0
    3.8971    5.2500    0.0000 C   0  0  0  0  0  0  0  0  0  0  0  0
    2.5981    4.5000    0.0000 C   0  0  0  0  0  0  0  0  0  0  0  0
    2.5981    3.0000    0.0000 C   0  0  0  0  0  0  0  0  0  0  0  0
    1.2990    2.2500    0.0000 O   0  0  0  0  0  0  0  0  0  0  0  0
    1.2990    0.7500    0.0000 C   0  0  0  0  0  0  0  0  0  0  0  0
    0.0000    0.0000    0.0000 C   0  0  0  0  0  0  0  0  0  0  0  0
    2.5981   -0.0000    0.0000 C   0  0  0  0  0  0  0  0  0  0  0  0
    5.1962    7.5000    0.0000 C   0  0  0  0  0  0  0  0  0  0  0  0
    5.1962    9.0000    0.0000 C   0  0  0  0  0  0  0  0  0  0  0  0
    3.8971    9.7500    0.0000 O   0  0  0  0  0  0  0  0  0  0  0  0
    6.4952    9.7500    0.0000 N   0  0  0  0  0  0  0  0  0  0  0  0
    6.4952   11.2500    0.0000 C   0  0  0  0  0  0  0  0  0  0  0  0
    7.7942   12.0000    0.0000 C   0  0  0  0  0  0  0  0  0  0  0  0
    7.7942   13.5000    0.0000 C   0  0  0  0  0  0  0  0  0  0  0  0
    9.0933   11.2500    0.0000 C   0  0  0  0  0  0  0  0  0  0  0  0
    5.1962   12.0000    0.0000 C   0  0  0  0  0  0  0  0  0  0  0  0
    3.8971   11.2500    0.0000 O   0  0  0  0  0  0  0  0  0  0  0  0
    5.1962   13.5000    0.0000 N   0  0  0  0  0  0  0  0  0  0  0  0
    3.8971   14.2500    0.0000 C   0  0  0  0  0  0  0  0  0  0  0  0
    3.8971   15.7500    0.0000 C   0  0  0  0  0  0  0  0  0  0  0  0
    2.5981   16.5000    0.0000 C   0  0  0  0  0  0  0  0  0  0  0  0
    1.2990   17.2500    0.0000 C   0  0  0  0  0  0  0  0  0  0  0  0
    2.5981   13.5000    0.0000 C   0  0  0  0  0  0  0  0  0  0  0  0
    2.5981   12.0000    0.0000 O   0  0  0  0  0  0  0  0  0  0  0  0
    1.2990   14.2500    0.0000 O   0  0  0  0  0  0  0  0  0  0  0  0
  1  2  1  0
  2  3  1  0
  3  4  1  0
  4  5  1  0
  5  6  1  0
  6  7  1  0
  6  8  1  0
  1  9  1  0
  9 10  1  0
 10 11  2  0
 10 12  1  0
 13 12  1  6
 13 14  1  0
 14 15  1  0
 14 16  1  0
 13 17  1  0
 17 18  2  0
 17 19  1  0
 19 20  1  0
 20 21  1  6
 21 22  1  0
 22 23  3  0
 20 24  1  0
 24 25  2  0
 24 26  1  0
M  END
$$$$

     RDKit          2D

 28 28  0  0  0  0  0  0  0  0999 V2000
    6.0000   -2.5981    0.0000 N   0  0  0  0  0  0  0  0  0  0  0  0
    5.2500   -1.2990    0.0000 C   0  0  0  0  0  0  0  0  0  0  0  0
    3.7500   -1.2990    0.0000 C   0  0  0  0  0  0  0  0  0  0  0  0
    3.0000    0.0000    0.0000 O   0  0  0  0  0  0  0  0  0  0  0  0
    1.5000    0.0000    0.0000 C   0  0  0  0  0  0  0  0  0  0  0  0
    0.7500   -1.2990    0.0000 C   0  0  0  0  0  0  0  0  0  0  0  0
   -0.7500   -1.2990    0.0000 C   0  0  0  0  0  0  0  0  0  0  0  0
   -1.5000    0.0000    0.0000 C   0  0  0  0  0  0  0  0  0  0  0  0
   -0.7500    1.2990    0.0000 C   0  0  0  0  0  0  0  0  0  0  0  0
    0.7500    1.2990    0.0000 C   0  0  0  0  0  0  0  0  0  0  0  0
    7.5000   -2.5981    0.0000 C   0  0  0  0  0  0  0  0  0  0  0  0
    8.2500   -3.8971    0.0000 C   0  0  0  0  0  0  0  0  0  0  0  0
    7.5000   -5.1962    0.0000 O   0  0  0  0  0  0  0  0  0  0  0  0
    9.7500   -3.8971    0.0000 N   0  0  0  0  0  0  0  0  0  0  0  0
   10.5000   -5.1962    0.0000 C   0  0  0  0  0  0  0  0  0  0  0  0
   12.0000   -5.1962    0.0000 C   0  0  0  0  0  0  0  0  0  0  0  0
   12.7500   -6.4952    0.0000 C   0  0  0  0  0  0  0  0  0  0  0  0
   12.7500   -3.8971    0.0000 C   0  0  0  0  0  0  0  0  0  0  0  0
    9.7500   -6.4952    0.0000 C   0  0  0  0  0  0  0  0  0  0  0  0
    8.2500   -6.4952    0.0000 O   0  0  0  0  0  0  0  0  0  0  0  0
   10.5000   -7.7942    0.0000 N   0  0  0  0  0  0  0  0  0  0  0  0
    9.7500   -9.0933    0.0000 C   0  0  0  0  0  0  0  0  0  0  0  0
   10.5000  -10.3923    0.0000 C   0  0  0  0  0  0  0  0  0  0  0  0
    9.7500  -11.6913    0.0000 C   0  0  0  0  0  0  0  0  0  0  0  0
    9.0000  -12.9904    0.0000 C   0  0  0  0  0  0  0  0  0  0  0  0
    8.2500   -9.0933    0.0000 C   0  0  0  0  0  0  0  0  0  0  0  0
    7.5000   -7.7942    0.0000 O   0  0  0  0  0  0  0  0  0  0  0  0
    7.5000  -10.3923    0.0000 O   0  0  0  0  0  0  0  0  0  0  0  0
  1  2  1  0
  2  3  1  0
  3  4  1  0
  4  5  1  0
  5  6  2  0
  6  7  1  0
  7  8  2  0
  8  9  1  0
  9 10  2  0
  1 11  1  0
 11 12  1  0
 12 13  2  0
 12 14  1  0
 15 14  1  1
 15 16  1  0
 16 17  1  0
 16 18  1  0
 15 19  1  0
 19 20  2  0
 19 21  1  0
 21 22  1  0
 22 23  1  1
 23 24  1  0
 24 25  3  0
 22 26  1  0
 26 27  2  0
 26 28  1  0
 10  5  1  0
M  END
$$$$

     RDKit          2D

 31 31  0  0  0  0  0  0  0  0999 V2000
    5.2500   -1.2990    0.0000 N   0  0  0  0  0  0  0  0  0  0  0  0
    3.7500   -1.2990    0.0000 C   0  0  0  0  0  0  0  0  0  0  0  0
    3.0000    0.0000    0.0000 C   0  0  0  0  0  0  0  0  0  0  0  0
    1.5000    0.0000    0.0000 C   0  0  0  0  0  0  0  0  0  0  0  0
    0.7500   -1.2990    0.0000 C   0  0  0  0  0  0  0  0  0  0  0  0
   -0.7500   -1.2990    0.0000 C   0  0  0  0  0  0  0  0  0  0  0  0
   -1.5000    0.0000    0.0000 C   0  0  0  0  0  0  0  0  0  0  0  0
   -0.7500    1.2990    0.0000 C   0  0  0  0  0  0  0  0  0  0  0  0
   -1.5000    2.5981    0.0000 O   0  0  0  0  0  0  0  0  0  0  0  0
   -0.7500    3.8971    0.0000 C   0  0  0  0  0  0  0  0  0  0  0  0
    0.7500    1.2990    0.0000 C   0  0  0  0  0  0  0  0  0  0  0  0
   -3.0000    0.0000    0.0000 O   0  0  0  0  0  0  0  0  0  0  0  0
   -3.7500    1.2990    0.0000 C   0  0  0  0  0  0  0  0  0  0  0  0
    6.0000   -2.5981    0.0000 C   0  0  0  0  0  0  0  0  0  0  0  0
    7.5000   -2.5981    0.0000 C   0  0  0  0  0  0  0  0  0  0  0  0
    8.2500   -1.2990    0.0000 O   0  0  0  0  0  0  0  0  0  0  0  0
    8.2500   -3.8971    0.0000 N   0  0  0  0  0  0  0  0  0  0  0  0
    9.7500   -3.8971    0.0000 C   0  0  0  0  0  0  0  0  0  0  0  0
   10.5000   -5.1962    0.0000 C   0  0  0  0  0  0  0  0  0  0  0  0
   12.0000   -5.1962    0.0000 C   0  0  0  0  0  0  0  0  0  0  0  0
    9.7500   -6.4952    0.0000 C   0  0  0  0  0  0  0  0  0  0  0  0
   10.5000   -2.5981    0.0000 C   0  0  0  0  0  0  0  0  0  0  0  0
    9.7500   -1.2990    0.0000 O   0  0  0  0  0  0  0  0  0  0  0  0
   12.0000   -2.5981    0.0000 N   0  0  0  0  0  0  0  0  0  0  0  0
   12.7500   -1.2990    0.0000 C   0  0  0  0  0  0  0  0  0  0  0  0
   14.2500   -1.2990    0.0000 C   0  0  0  0  0  0  0  0  0  0  0  0
   15.0000    0.0000    0.0000 C   0  0  0  0  0  0  0  0  0  0  0  0
   15.7500    1.2990    0.0000 C   0  0  0  0  0  0  0  0  0  0  0  0
   12.0000    0.0000    0.0000 C   0  0  0  0  0  0  0  0  0  0  0  0
   10.5000    0.0000    0.0000 O   0  0  0  0  0  0  0  0  0  0  0  0
   12.7500    1.2990    0.0000 O   0  0  0  0  0  0  0  0  0  0  0  0
  1  2  1  0
  2  3  1  0
  3  4  1  0
  4  5  2  0
  5  6  1  0
  6  7  2  0
  7  8  1  0
  8  9  1  0
  9 10  1  0
  8 11  2  0
  7 12  1  0
 12 13  1  0
  1 14  1  0
 14 15  1  0
 15 16  2  0
 15 17  1  0
 18 17  1  6
 18 19  1  0
 19 20  1  0
 19 21  1  0
 18 22  1  0
 22 23  2  0
 22 24  1  0
 24 25  1  0
 25 26  1  6
 26 27  1  0
 27 28  3  0
 25 29  1  0
 29 30  2  0
 29 31  1  0
 11  4  1  0
M  END
$$$$

     RDKit          2D

 38 38  0  0  0  0  0  0  0  0999 V2000
    1.2760    5.1962    0.0000 N   0  0  0  0  0  0  0  0  0  0  0  0
    2.7760    5.1962    0.0000 C   0  0  0  0  0  0  0  0  0  0  0  0
    3.5260    6.4952    0.0000 C   0  0  0  0  0  0  0  0  0  0  0  0
    2.7760    7.7942    0.0000 C   0  0  0  0  0  0  0  0  0  0  0  0
    3.5260    9.0933    0.0000 C   0  0  0  0  0  0  0  0  0  0  0  0
    1.2760    7.7942    0.0000 C   0  0  0  0  0  0  0  0  0  0  0  0
    3.5260    3.8971    0.0000 C   0  0  0  0  0  0  0  0  0  0  0  0
    5.0260    3.8971    0.0000 O   0  0  0  0  0  0  0  0  0  0  0  0
    2.7760    2.5981    0.0000 N   0  0  0  0  0  0  0  0  0  0  0  0
    3.5260    1.2990    0.0000 C   0  0  0  0  0  0  0  0  0  0  0  0
    5.0260    1.2990    0.0000 C   0  0  0  0  0  0  0  0  0  0  0  0
    5.7760    0.0000    0.0000 C   0  0  0  0  0  0  0  0  0  0  0  0
    5.0260   -1.2990    0.0000 C   0  0  0  0  0  0  0  0  0  0  0  0
    7.2760    0.0000    0.0000 C   0  0  0  0  0  0  0  0  0  0  0  0
    2.7760    0.0000    0.0000 C   0  0  0  0  0  0  0  0  0  0  0  0
    3.5260   -1.2990    0.0000 O   0  0  0  0  0  0  0  0  0  0  0  0
    1.2760    0.0000    0.0000 N   0  0  0  0  0  0  0  0  0  0  0  0
    0.3943    1.2135    0.0000 C   0  0  0  0  0  0  0  0  0  0  0  0
   -1.0323    0.7500    0.0000 C   0  0  0  0  0  0  0  0  0  0  0  0
   -1.0323   -0.7500    0.0000 C   0  0  0  0  0  0  0  0  0  0  0  0
    0.3943   -1.2135    0.0000 C   0  0  0  0  0  0  0  0  0  0  0  0
    0.8578   -2.6401    0.0000 C   0  0  0  0  0  0  0  0  0  0  0  0
    2.3250   -2.9520    0.0000 O   0  0  0  0  0  0  0  0  0  0  0  0
   -0.1459   -3.7548    0.0000 N   0  0  0  0  0  0  0  0  0  0  0  0
    0.3177   -5.1814    0.0000 C   0  0  0  0  0  0  0  0  0  0  0  0
   -0.6860   -6.2961    0.0000 C   0  0  0  0  0  0  0  0  0  0  0  0
   -0.2225   -7.7227    0.0000 C   0  0  0  0  0  0  0  0  0  0  0  0
   -2.1533   -5.9843    0.0000 C   0  0  0  0  0  0  0  0  0  0  0  0
    1.7849   -5.4933    0.0000 C   0  0  0  0  0  0  0  0  0  0  0  0
    2.7886   -4.3786    0.0000 O   0  0  0  0  0  0  0  0  0  0  0  0
    2.2484   -6.9199    0.0000 N   0  0  0  0  0  0  0  0  0  0  0  0
    3.7156   -7.2317    0.0000 C   0  0  0  0  0  0  0  0  0  0  0  0
    4.1791   -8.6583    0.0000 C   0  0  0  0  0  0  0  0  0  0  0  0
    5.6464   -8.9702    0.0000 C   0  0  0  0  0  0  0  0  0  0  0  0
    7.1136   -9.2821    0.0000 C   0  0  0  0  0  0  0  0  0  0  0  0
    4.7193   -6.1170    0.0000 C   0  0  0  0  0  0  0  0  0  0  0  0
    4.2558   -4.6904    0.0000 O   0  0  0  0  0  0  0  0  0  0  0  0
    6.1865   -6.4289    0.0000 O   0  0  0  0  0  0  0  0  0  0  0  0
  2  1  1  1
  2  3  1  0
  3  4  1  0
  4  5  1  0
  4  6  1  0
  2  7  1  0
  7  8  2  0
  7  9  1  0
  9 10  1  0
 10 11  1  1
 11 12  1  0
 12 13  1  0
 12 14  1  0
 10 15  1  0
 15 16  2  0
 15 17  1  0
 17 18  1  0
 18 19  1  0
 19 20  1  0
 20 21  1  0
 21 22  1  6
 22 23  2  0
 22 24  1  0
 25 24  1  6
 25 26  1  0
 26 27  1  0
 26 28  1  0
 25 29  1  0
 29 30  2  0
 29 31  1  0
 31 32  1  0
 32 33  1  6
 33 34  1  0
 34 35  3  0
 32 36  1  0
 36 37  2  0
 36 38  1  0
 21 17  1  0
M  END
$$$$

     RDKit          2D

 38 38  0  0  0  0  0  0  0  0999 V2000
    1.2760    5.1962    0.0000 N   0  0  0  0  0  0  0  0  0  0  0  0
    2.7760    5.1962    0.0000 C   0  0  0  0  0  0  0  0  0  0  0  0
    3.5260    6.4952    0.0000 C   0  0  0  0  0  0  0  0  0  0  0  0
    2.7760    7.7942    0.0000 C   0  0  0  0  0  0  0  0  0  0  0  0
    3.5260    9.0933    0.0000 C   0  0  0  0  0  0  0  0  0  0  0  0
    1.2760    7.7942    0.0000 C   0  0  0  0  0  0  0  0  0  0  0  0
    3.5260    3.8971    0.0000 C   0  0  0  0  0  0  0  0  0  0  0  0
    5.0260    3.8971    0.0000 O   0  0  0  0  0  0  0  0  0  0  0  0
    2.7760    2.5981    0.0000 N   0  0  0  0  0  0  0  0  0  0  0  0
    3.5260    1.2990    0.0000 C   0  0  0  0  0  0  0  0  0  0  0  0
    5.0260    1.2990    0.0000 C   0  0  0  0  0  0  0  0  0  0  0  0
    5.7760    0.0000    0.0000 C   0  0  0  0  0  0  0  0  0  0  0  0
    5.0260   -1.2990    0.0000 C   0  0  0  0  0  0  0  0  0  0  0  0
    7.2760    0.0000    0.0000 C   0  0  0  0  0  0  0  0  0  0  0  0
    2.7760    0.0000    0.0000 C   0  0  0  0  0  0  0  0  0  0  0  0
    3.5260   -1.2990    0.0000 O   0  0  0  0  0  0  0  0  0  0  0  0
    1.2760    0.0000    0.0000 N   0  0  0  0  0  0  0  0  0  0  0  0
    0.3943    1.2135    0.0000 C   0  0  0  0  0  0  0  0  0  0  0  0
   -1.0323    0.7500    0.0000 C   0  0  0  0  0  0  0  0  0  0  0  0
   -1.0323   -0.7500    0.0000 C   0  0  0  0  0  0  0  0  0  0  0  0
    0.3943   -1.2135    0.0000 C   0  0  0  0  0  0  0  0  0  0  0  0
    0.8578   -2.6401    0.0000 C   0  0  0  0  0  0  0  0  0  0  0  0
    2.3250   -2.9520    0.0000 O   0  0  0  0  0  0  0  0  0  0  0  0
   -0.1459   -3.7548    0.0000 N   0  0  0  0  0  0  0  0  0  0  0  0
    0.3177   -5.1814    0.0000 C   0  0  0  0  0  0  0  0  0  0  0  0
   -0.6860   -6.2961    0.0000 C   0  0  0  0  0  0  0  0  0  0  0  0
   -0.2225   -7.7227    0.0000 C   0  0  0  0  0  0  0  0  0  0  0  0
   -2.1533   -5.9843    0.0000 C   0  0  0  0  0  0  0  0  0  0  0  0
    1.7849   -5.4933    0.0000 C   0  0  0  0  0  0  0  0  0  0  0  0
    2.7886   -4.3786    0.0000 O   0  0  0  0  0  0  0  0  0  0  0  0
    2.2484   -6.9199    0.0000 N   0  0  0  0  0  0  0  0  0  0  0  0
    3.7156   -7.2317    0.0000 C   0  0  0  0  0  0  0  0  0  0  0  0
    4.1791   -8.6583    0.0000 C   0  0  0  0  0  0  0  0  0  0  0  0
    5.6464   -8.9702    0.0000 C   0  0  0  0  0  0  0  0  0  0  0  0
    7.1136   -9.2821    0.0000 C   0  0  0  0  0  0  0  0  0  0  0  0
    4.7193   -6.1170    0.0000 C   0  0  0  0  0  0  0  0  0  0  0  0
    4.2558   -4.6904    0.0000 O   0  0  0  0  0  0  0  0  0  0  0  0
    6.1865   -6.4289    0.0000 O   0  0  0  0  0  0  0  0  0  0  0  0
  2  1  1  6
  2  3  1  0
  3  4  1  0
  4  5  1  0
  4  6  1  0
  2  7  1  0
  7  8  2  0
  7  9  1  0
  9 10  1  0
 10 11  1  1
 11 12  1  0
 12 13  1  0
 12 14  1  0
 10 15  1  0
 15 16  2  0
 15 17  1  0
 17 18  1  0
 18 19  1  0
 19 20  1  0
 20 21  1  0
 21 22  1  6
 22 23  2  0
 22 24  1  0
 25 24  1  6
 25 26  1  0
 26 27  1  0
 26 28  1  0
 25 29  1  0
 29 30  2  0
 29 31  1  0
 31 32  1  0
 32 33  1  6
 33 34  1  0
 34 35  3  0
 32 36  1  0
 36 37  2  0
 36 38  1  0
 21 17  1  0
M  END
$$$$

     RDKit          2D

 39 39  0  0  0  0  0  0  0  0999 V2000
    1.2760    5.1962    0.0000 N   0  0  0  0  0  0  0  0  0  0  0  0
    0.5260    6.4952    0.0000 C   0  0  0  0  0  0  0  0  0  0  0  0
    2.7760    5.1962    0.0000 C   0  0  0  0  0  0  0  0  0  0  0  0
    3.5260    6.4952    0.0000 C   0  0  0  0  0  0  0  0  0  0  0  0
    2.7760    7.7942    0.0000 C   0  0  0  0  0  0  0  0  0  0  0  0
    3.5260    9.0933    0.0000 C   0  0  0  0  0  0  0  0  0  0  0  0
    1.2760    7.7942    0.0000 C   0  0  0  0  0  0  0  0  0  0  0  0
    3.5260    3.8971    0.0000 C   0  0  0  0  0  0  0  0  0  0  0  0
    5.0260    3.8971    0.0000 O   0  0  0  0  0  0  0  0  0  0  0  0
    2.7760    2.5981    0.0000 N   0  0  0  0  0  0  0  0  0  0  0  0
    3.5260    1.2990    0.0000 C   0  0  0  0  0  0  0  0  0  0  0  0
    5.0260    1.2990    0.0000 C   0  0  0  0  0  0  0  0  0  0  0  0
    5.7760    0.0000    0.0000 C   0  0  0  0  0  0  0  0  0  0  0  0
    7.2760    0.0000    0.0000 C   0  0  0  0  0  0  0  0  0  0  0  0
    5.0260   -1.2990    0.0000 C   0  0  0  0  0  0  0  0  0  0  0  0
    2.7760    0.0000    0.0000 C   0  0  0  0  0  0  0  0  0  0  0  0
    3.5260   -1.2990    0.0000 O   0  0  0  0  0  0  0  0  0  0  0  0
    1.2760    0.0000    0.0000 N   0  0  0  0  0  0  0  0  0  0  0  0
    0.3943    1.2135    0.0000 C   0  0  0  0  0  0  0  0  0  0  0  0
   -1.0323    0.7500    0.0000 C   0  0  0  0  0  0  0  0  0  0  0  0
   -1.0323   -0.7500    0.0000 C   0  0  0  0  0  0  0  0  0  0  0  0
    0.3943   -1.2135    0.0000 C   0  0  0  0  0  0  0  0  0  0  0  0
    0.8578   -2.6401    0.0000 C   0  0  0  0  0  0  0  0  0  0  0  0
    2.3250   -2.9520    0.0000 O   0  0  0  0  0  0  0  0  0  0  0  0
   -0.1459   -3.7548    0.0000 N   0  0  0  0  0  0  0  0  0  0  0  0
    0.3177   -5.1814    0.0000 C   0  0  0  0  0  0  0  0  0  0  0  0
   -0.6860   -6.2961    0.0000 C   0  0  0  0  0  0  0  0  0  0  0  0
   -0.2225   -7.7227    0.0000 C   0  0  0  0  0  0  0  0  0  0  0  0
   -2.1533   -5.9843    0.0000 C   0  0  0  0  0  0  0  0  0  0  0  0
    1.7849   -5.4933    0.0000 C   0  0  0  0  0  0  0  0  0  0  0  0
    2.7886   -4.3786    0.0000 O   0  0  0  0  0  0  0  0  0  0  0  0
    2.2484   -6.9199    0.0000 N   0  0  0  0  0  0  0  0  0  0  0  0
    3.7156   -7.2317    0.0000 C   0  0  0  0  0  0  0  0  0  0  0  0
    4.1791   -8.6583    0.0000 C   0  0  0  0  0  0  0  0  0  0  0  0
    5.6464   -8.9702    0.0000 C   0  0  0  0  0  0  0  0  0  0  0  0
    7.1136   -9.2821    0.0000 C   0  0  0  0  0  0  0  0  0  0  0  0
    4.7193   -6.1170    0.0000 C   0  0  0  0  0  0  0  0  0  0  0  0
    4.2558   -4.6904    0.0000 O   0  0  0  0  0  0  0  0  0  0  0  0
    6.1865   -6.4289    0.0000 O   0  0  0  0  0  0  0  0  0  0  0  0
  1  2  1  0
  1  3  1  0
  3  4  1  1
  4  5  1  0
  5  6  1  0
  5  7  1  0
  3  8  1  0
  8  9  2  0
  8 10  1  0
 10 11  1  0
 11 12  1  1
 12 13  1  0
 13 14  1  0
 13 15  1  0
 11 16  1  0
 16 17  2  0
 16 18  1  0
 18 19  1  0
 19 20  1  0
 20 21  1  0
 21 22  1  0
 22 23  1  6
 23 24  2  0
 23 25  1  0
 26 25  1  6
 26 27  1  0
 27 28  1  0
 27 29  1  0
 26 30  1  0
 30 31  2  0
 30 32  1  0
 32 33  1  0
 33 34  1  6
 34 35  1  0
 35 36  3  0
 33 37  1  0
 37 38  2  0
 37 39  1  0
 22 18  1  0
M  END
$$$$

     RDKit          2D

 39 39  0  0  0  0  0  0  0  0999 V2000
    1.2760    5.1962    0.0000 N   0  0  0  0  0  0  0  0  0  0  0  0
    0.5260    6.4952    0.0000 C   0  0  0  0  0  0  0  0  0  0  0  0
    2.7760    5.1962    0.0000 C   0  0  0  0  0  0  0  0  0  0  0  0
    3.5260    6.4952    0.0000 C   0  0  0  0  0  0  0  0  0  0  0  0
    2.7760    7.7942    0.0000 C   0  0  0  0  0  0  0  0  0  0  0  0
    3.5260    9.0933    0.0000 C   0  0  0  0  0  0  0  0  0  0  0  0
    1.2760    7.7942    0.0000 C   0  0  0  0  0  0  0  0  0  0  0  0
    3.5260    3.8971    0.0000 C   0  0  0  0  0  0  0  0  0  0  0  0
    5.0260    3.8971    0.0000 O   0  0  0  0  0  0  0  0  0  0  0  0
    2.7760    2.5981    0.0000 N   0  0  0  0  0  0  0  0  0  0  0  0
    3.5260    1.2990    0.0000 C   0  0  0  0  0  0  0  0  0  0  0  0
    5.0260    1.2990    0.0000 C   0  0  0  0  0  0  0  0  0  0  0  0
    5.7760    0.0000    0.0000 C   0  0  0  0  0  0  0  0  0  0  0  0
    7.2760    0.0000    0.0000 C   0  0  0  0  0  0  0  0  0  0  0  0
    5.0260   -1.2990    0.0000 C   0  0  0  0  0  0  0  0  0  0  0  0
    2.7760    0.0000    0.0000 C   0  0  0  0  0  0  0  0  0  0  0  0
    3.5260   -1.2990    0.0000 O   0  0  0  0  0  0  0  0  0  0  0  0
    1.2760    0.0000    0.0000 N   0  0  0  0  0  0  0  0  0  0  0  0
    0.3943    1.2135    0.0000 C   0  0  0  0  0  0  0  0  0  0  0  0
   -1.0323    0.7500    0.0000 C   0  0  0  0  0  0  0  0  0  0  0  0
   -1.0323   -0.7500    0.0000 C   0  0  0  0  0  0  0  0  0  0  0  0
    0.3943   -1.2135    0.0000 C   0  0  0  0  0  0  0  0  0  0  0  0
    0.8578   -2.6401    0.0000 C   0  0  0  0  0  0  0  0  0  0  0  0
    2.3250   -2.9520    0.0000 O   0  0  0  0  0  0  0  0  0  0  0  0
   -0.1459   -3.7548    0.0000 N   0  0  0  0  0  0  0  0  0  0  0  0
    0.3177   -5.1814    0.0000 C   0  0  0  0  0  0  0  0  0  0  0  0
   -0.6860   -6.2961    0.0000 C   0  0  0  0  0  0  0  0  0  0  0  0
   -0.2225   -7.7227    0.0000 C   0  0  0  0  0  0  0  0  0  0  0  0
   -2.1533   -5.9843    0.0000 C   0  0  0  0  0  0  0  0  0  0  0  0
    1.7849   -5.4933    0.0000 C   0  0  0  0  0  0  0  0  0  0  0  0
    2.7886   -4.3786    0.0000 O   0  0  0  0  0  0  0  0  0  0  0  0
    2.2484   -6.9199    0.0000 N   0  0  0  0  0  0  0  0  0  0  0  0
    3.7156   -7.2317    0.0000 C   0  0  0  0  0  0  0  0  0  0  0  0
    4.1791   -8.6583    0.0000 C   0  0  0  0  0  0  0  0  0  0  0  0
    5.6464   -8.9702    0.0000 C   0  0  0  0  0  0  0  0  0  0  0  0
    7.1136   -9.2821    0.0000 C   0  0  0  0  0  0  0  0  0  0  0  0
    4.7193   -6.1170    0.0000 C   0  0  0  0  0  0  0  0  0  0  0  0
    4.2558   -4.6904    0.0000 O   0  0  0  0  0  0  0  0  0  0  0  0
    6.1865   -6.4289    0.0000 O   0  0  0  0  0  0  0  0  0  0  0  0
  1  2  1  0
  1  3  1  0
  3  4  1  6
  4  5  1  0
  5  6  1  0
  5  7  1  0
  3  8  1  0
  8  9  2  0
  8 10  1  0
 10 11  1  0
 11 12  1  1
 12 13  1  0
 13 14  1  0
 13 15  1  0
 11 16  1  0
 16 17  2  0
 16 18  1  0
 18 19  1  0
 19 20  1  0
 20 21  1  0
 21 22  1  0
 22 23  1  6
 23 24  2  0
 23 25  1  0
 26 25  1  6
 26 27  1  0
 27 28  1  0
 27 29  1  0
 26 30  1  0
 30 31  2  0
 30 32  1  0
 32 33  1  0
 33 34  1  6
 34 35  1  0
 35 36  3  0
 33 37  1  0
 37 38  2  0
 37 39  1  0
 22 18  1  0
M  END
$$$$

     RDKit          2D

 38 38  0  0  0  0  0  0  0  0999 V2000
    1.2760    5.1962    0.0000 N   0  0  0  0  0  0  0  0  0  0  0  0
    2.7760    5.1962    0.0000 C   0  0  0  0  0  0  0  0  0  0  0  0
    3.5260    6.4952    0.0000 C   0  0  0  0  0  0  0  0  0  0  0  0
    2.7760    7.7942    0.0000 C   0  0  0  0  0  0  0  0  0  0  0  0
    3.5260    9.0933    0.0000 C   0  0  0  0  0  0  0  0  0  0  0  0
    1.2760    7.7942    0.0000 C   0  0  0  0  0  0  0  0  0  0  0  0
    3.5260    3.8971    0.0000 C   0  0  0  0  0  0  0  0  0  0  0  0
    5.0260    3.8971    0.0000 O   0  0  0  0  0  0  0  0  0  0  0  0
    2.7760    2.5981    0.0000 N   0  0  0  0  0  0  0  0  0  0  0  0
    3.5260    1.2990    0.0000 C   0  0  0  0  0  0  0  0  0  0  0  0
    5.0260    1.2990    0.0000 C   0  0  0  0  0  0  0  0  0  0  0  0
    5.7760    0.0000    0.0000 C   0  0  0  0  0  0  0  0  0  0  0  0
    5.0260   -1.2990    0.0000 C   0  0  0  0  0  0  0  0  0  0  0  0
    7.2760    0.0000    0.0000 C   0  0  0  0  0  0  0  0  0  0  0  0
    2.7760    0.0000    0.0000 C   0  0  0  0  0  0  0  0  0  0  0  0
    3.5260   -1.2990    0.0000 O   0  0  0  0  0  0  0  0  0  0  0  0
    1.2760    0.0000    0.0000 N   0  0  0  0  0  0  0  0  0  0  0  0
    0.3943    1.2135    0.0000 C   0  0  0  0  0  0  0  0  0  0  0  0
   -1.0323    0.7500    0.0000 C   0  0  0  0  0  0  0  0  0  0  0  0
   -1.0323   -0.7500    0.0000 C   0  0  0  0  0  0  0  0  0  0  0  0
    0.3943   -1.2135    0.0000 C   0  0  0  0  0  0  0  0  0  0  0  0
    0.8578   -2.6401    0.0000 C   0  0  0  0  0  0  0  0  0  0  0  0
    2.3250   -2.9520    0.0000 O   0  0  0  0  0  0  0  0  0  0  0  0
   -0.1459   -3.7548    0.0000 N   0  0  0  0  0  0  0  0  0  0  0  0
    0.3177   -5.1814    0.0000 C   0  0  0  0  0  0  0  0  0  0  0  0
   -0.6860   -6.2961    0.0000 C   0  0  0  0  0  0  0  0  0  0  0  0
   -0.2225   -7.7227    0.0000 C   0  0  0  0  0  0  0  0  0  0  0  0
   -2.1533   -5.9843    0.0000 C   0  0  0  0  0  0  0  0  0  0  0  0
    1.7849   -5.4933    0.0000 C   0  0  0  0  0  0  0  0  0  0  0  0
    2.7886   -4.3786    0.0000 O   0  0  0  0  0  0  0  0  0  0  0  0
    2.2484   -6.9199    0.0000 N   0  0  0  0  0  0  0  0  0  0  0  0
    3.7156   -7.2317    0.0000 C   0  0  0  0  0  0  0  0  0  0  0  0
    4.1791   -8.6583    0.0000 C   0  0  0  0  0  0  0  0  0  0  0  0
    5.6464   -8.9702    0.0000 C   0  0  0  0  0  0  0  0  0  0  0  0
    7.1136   -9.2821    0.0000 C   0  0  0  0  0  0  0  0  0  0  0  0
    4.7193   -6.1170    0.0000 C   0  0  0  0  0  0  0  0  0  0  0  0
    4.2558   -4.6904    0.0000 O   0  0  0  0  0  0  0  0  0  0  0  0
    6.1865   -6.4289    0.0000 O   0  0  0  0  0  0  0  0  0  0  0  0
  2  1  1  1
  2  3  1  0
  3  4  1  0
  4  5  1  0
  4  6  1  0
  2  7  1  0
  7  8  2  0
  7  9  1  0
  9 10  1  0
 10 11  1  6
 11 12  1  0
 12 13  1  0
 12 14  1  0
 10 15  1  0
 15 16  2  0
 15 17  1  0
 17 18  1  0
 18 19  1  0
 19 20  1  0
 20 21  1  0
 21 22  1  6
 22 23  2  0
 22 24  1  0
 25 24  1  6
 25 26  1  0
 26 27  1  0
 26 28  1  0
 25 29  1  0
 29 30  2  0
 29 31  1  0
 31 32  1  0
 32 33  1  6
 33 34  1  0
 34 35  3  0
 32 36  1  0
 36 37  2  0
 36 38  1  0
 21 17  1  0
M  END
$$$$

     RDKit          2D

 38 38  0  0  0  0  0  0  0  0999 V2000
    1.2760    5.1962    0.0000 N   0  0  0  0  0  0  0  0  0  0  0  0
    2.7760    5.1962    0.0000 C   0  0  0  0  0  0  0  0  0  0  0  0
    3.5260    6.4952    0.0000 C   0  0  0  0  0  0  0  0  0  0  0  0
    2.7760    7.7942    0.0000 C   0  0  0  0  0  0  0  0  0  0  0  0
    3.5260    9.0933    0.0000 C   0  0  0  0  0  0  0  0  0  0  0  0
    1.2760    7.7942    0.0000 C   0  0  0  0  0  0  0  0  0  0  0  0
    3.5260    3.8971    0.0000 C   0  0  0  0  0  0  0  0  0  0  0  0
    5.0260    3.8971    0.0000 O   0  0  0  0  0  0  0  0  0  0  0  0
    2.7760    2.5981    0.0000 N   0  0  0  0  0  0  0  0  0  0  0  0
    3.5260    1.2990    0.0000 C   0  0  0  0  0  0  0  0  0  0  0  0
    5.0260    1.2990    0.0000 C   0  0  0  0  0  0  0  0  0  0  0  0
    5.7760    0.0000    0.0000 C   0  0  0  0  0  0  0  0  0  0  0  0
    5.0260   -1.2990    0.0000 C   0  0  0  0  0  0  0  0  0  0  0  0
    7.2760    0.0000    0.0000 C   0  0  0  0  0  0  0  0  0  0  0  0
    2.7760    0.0000    0.0000 C   0  0  0  0  0  0  0  0  0  0  0  0
    3.5260   -1.2990    0.0000 O   0  0  0  0  0  0  0  0  0  0  0  0
    1.2760    0.0000    0.0000 N   0  0  0  0  0  0  0  0  0  0  0  0
    0.3943    1.2135    0.0000 C   0  0  0  0  0  0  0  0  0  0  0  0
   -1.0323    0.7500    0.0000 C   0  0  0  0  0  0  0  0  0  0  0  0
   -1.0323   -0.7500    0.0000 C   0  0  0  0  0  0  0  0  0  0  0  0
    0.3943   -1.2135    0.0000 C   0  0  0  0  0  0  0  0  0  0  0  0
    0.8578   -2.6401    0.0000 C   0  0  0  0  0  0  0  0  0  0  0  0
    2.3250   -2.9520    0.0000 O   0  0  0  0  0  0  0  0  0  0  0  0
   -0.1459   -3.7548    0.0000 N   0  0  0  0  0  0  0  0  0  0  0  0
    0.3177   -5.1814    0.0000 C   0  0  0  0  0  0  0  0  0  0  0  0
   -0.6860   -6.2961    0.0000 C   0  0  0  0  0  0  0  0  0  0  0  0
   -0.2225   -7.7227    0.0000 C   0  0  0  0  0  0  0  0  0  0  0  0
   -2.1533   -5.9843    0.0000 C   0  0  0  0  0  0  0  0  0  0  0  0
    1.7849   -5.4933    0.0000 C   0  0  0  0  0  0  0  0  0  0  0  0
    2.7886   -4.3786    0.0000 O   0  0  0  0  0  0  0  0  0  0  0  0
    2.2484   -6.9199    0.0000 N   0  0  0  0  0  0  0  0  0  0  0  0
    3.7156   -7.2317    0.0000 C   0  0  0  0  0  0  0  0  0  0  0  0
    4.1791   -8.6583    0.0000 C   0  0  0  0  0  0  0  0  0  0  0  0
    5.6464   -8.9702    0.0000 C   0  0  0  0  0  0  0  0  0  0  0  0
    7.1136   -9.2821    0.0000 C   0  0  0  0  0  0  0  0  0  0  0  0
    4.7193   -6.1170    0.0000 C   0  0  0  0  0  0  0  0  0  0  0  0
    4.2558   -4.6904    0.0000 O   0  0  0  0  0  0  0  0  0  0  0  0
    6.1865   -6.4289    0.0000 O   0  0  0  0  0  0  0  0  0  0  0  0
  2  1  1  6
  2  3  1  0
  3  4  1  0
  4  5  1  0
  4  6  1  0
  2  7  1  0
  7  8  2  0
  7  9  1  0
  9 10  1  0
 10 11  1  6
 11 12  1  0
 12 13  1  0
 12 14  1  0
 10 15  1  0
 15 16  2  0
 15 17  1  0
 17 18  1  0
 18 19  1  0
 19 20  1  0
 20 21  1  0
 21 22  1  6
 22 23  2  0
 22 24  1  0
 25 24  1  6
 25 26  1  0
 26 27  1  0
 26 28  1  0
 25 29  1  0
 29 30  2  0
 29 31  1  0
 31 32  1  0
 32 33  1  6
 33 34  1  0
 34 35  3  0
 32 36  1  0
 36 37  2  0
 36 38  1  0
 21 17  1  0
M  END
$$$$

     RDKit          2D

 39 39  0  0  0  0  0  0  0  0999 V2000
    1.2760    5.1962    0.0000 N   0  0  0  0  0  0  0  0  0  0  0  0
    0.5260    6.4952    0.0000 C   0  0  0  0  0  0  0  0  0  0  0  0
    2.7760    5.1962    0.0000 C   0  0  0  0  0  0  0  0  0  0  0  0
    3.5260    6.4952    0.0000 C   0  0  0  0  0  0  0  0  0  0  0  0
    2.7760    7.7942    0.0000 C   0  0  0  0  0  0  0  0  0  0  0  0
    3.5260    9.0933    0.0000 C   0  0  0  0  0  0  0  0  0  0  0  0
    1.2760    7.7942    0.0000 C   0  0  0  0  0  0  0  0  0  0  0  0
    3.5260    3.8971    0.0000 C   0  0  0  0  0  0  0  0  0  0  0  0
    5.0260    3.8971    0.0000 O   0  0  0  0  0  0  0  0  0  0  0  0
    2.7760    2.5981    0.0000 N   0  0  0  0  0  0  0  0  0  0  0  0
    3.5260    1.2990    0.0000 C   0  0  0  0  0  0  0  0  0  0  0  0
    5.0260    1.2990    0.0000 C   0  0  0  0  0  0  0  0  0  0  0  0
    5.7760    0.0000    0.0000 C   0  0  0  0  0  0  0  0  0  0  0  0
    7.2760    0.0000    0.0000 C   0  0  0  0  0  0  0  0  0  0  0  0
    5.0260   -1.2990    0.0000 C   0  0  0  0  0  0  0  0  0  0  0  0
    2.7760    0.0000    0.0000 C   0  0  0  0  0  0  0  0  0  0  0  0
    3.5260   -1.2990    0.0000 O   0  0  0  0  0  0  0  0  0  0  0  0
    1.2760    0.0000    0.0000 N   0  0  0  0  0  0  0  0  0  0  0  0
    0.3943    1.2135    0.0000 C   0  0  0  0  0  0  0  0  0  0  0  0
   -1.0323    0.7500    0.0000 C   0  0  0  0  0  0  0  0  0  0  0  0
   -1.0323   -0.7500    0.0000 C   0  0  0  0  0  0  0  0  0  0  0  0
    0.3943   -1.2135    0.0000 C   0  0  0  0  0  0  0  0  0  0  0  0
    0.8578   -2.6401    0.0000 C   0  0  0  0  0  0  0  0  0  0  0  0
    2.3250   -2.9520    0.0000 O   0  0  0  0  0  0  0  0  0  0  0  0
   -0.1459   -3.7548    0.0000 N   0  0  0  0  0  0  0  0  0  0  0  0
    0.3177   -5.1814    0.0000 C   0  0  0  0  0  0  0  0  0  0  0  0
   -0.6860   -6.2961    0.0000 C   0  0  0  0  0  0  0  0  0  0  0  0
   -0.2225   -7.7227    0.0000 C   0  0  0  0  0  0  0  0  0  0  0  0
   -2.1533   -5.9843    0.0000 C   0  0  0  0  0  0  0  0  0  0  0  0
    1.7849   -5.4933    0.0000 C   0  0  0  0  0  0  0  0  0  0  0  0
    2.7886   -4.3786    0.0000 O   0  0  0  0  0  0  0  0  0  0  0  0
    2.2484   -6.9199    0.0000 N   0  0  0  0  0  0  0  0  0  0  0  0
    3.7156   -7.2317    0.0000 C   0  0  0  0  0  0  0  0  0  0  0  0
    4.1791   -8.6583    0.0000 C   0  0  0  0  0  0  0  0  0  0  0  0
    5.6464   -8.9702    0.0000 C   0  0  0  0  0  0  0  0  0  0  0  0
    7.1136   -9.2821    0.0000 C   0  0  0  0  0  0  0  0  0  0  0  0
    4.7193   -6.1170    0.0000 C   0  0  0  0  0  0  0  0  0  0  0  0
    4.2558   -4.6904    0.0000 O   0  0  0  0  0  0  0  0  0  0  0  0
    6.1865   -6.4289    0.0000 O   0  0  0  0  0  0  0  0  0  0  0  0
  1  2  1  0
  1  3  1  0
  3  4  1  1
  4  5  1  0
  5  6  1  0
  5  7  1  0
  3  8  1  0
  8  9  2  0
  8 10  1  0
 10 11  1  0
 11 12  1  6
 12 13  1  0
 13 14  1  0
 13 15  1  0
 11 16  1  0
 16 17  2  0
 16 18  1  0
 18 19  1  0
 19 20  1  0
 20 21  1  0
 21 22  1  0
 22 23  1  6
 23 24  2  0
 23 25  1  0
 26 25  1  6
 26 27  1  0
 27 28  1  0
 27 29  1  0
 26 30  1  0
 30 31  2  0
 30 32  1  0
 32 33  1  0
 33 34  1  6
 34 35  1  0
 35 36  3  0
 33 37  1  0
 37 38  2  0
 37 39  1  0
 22 18  1  0
M  END
$$$$

     RDKit          2D

 39 39  0  0  0  0  0  0  0  0999 V2000
    1.2760    5.1962    0.0000 N   0  0  0  0  0  0  0  0  0  0  0  0
    0.5260    6.4952    0.0000 C   0  0  0  0  0  0  0  0  0  0  0  0
    2.7760    5.1962    0.0000 C   0  0  0  0  0  0  0  0  0  0  0  0
    3.5260    6.4952    0.0000 C   0  0  0  0  0  0  0  0  0  0  0  0
    2.7760    7.7942    0.0000 C   0  0  0  0  0  0  0  0  0  0  0  0
    3.5260    9.0933    0.0000 C   0  0  0  0  0  0  0  0  0  0  0  0
    1.2760    7.7942    0.0000 C   0  0  0  0  0  0  0  0  0  0  0  0
    3.5260    3.8971    0.0000 C   0  0  0  0  0  0  0  0  0  0  0  0
    5.0260    3.8971    0.0000 O   0  0  0  0  0  0  0  0  0  0  0  0
    2.7760    2.5981    0.0000 N   0  0  0  0  0  0  0  0  0  0  0  0
    3.5260    1.2990    0.0000 C   0  0  0  0  0  0  0  0  0  0  0  0
    5.0260    1.2990    0.0000 C   0  0  0  0  0  0  0  0  0  0  0  0
    5.7760    0.0000    0.0000 C   0  0  0  0  0  0  0  0  0  0  0  0
    7.2760    0.0000    0.0000 C   0  0  0  0  0  0  0  0  0  0  0  0
    5.0260   -1.2990    0.0000 C   0  0  0  0  0  0  0  0  0  0  0  0
    2.7760    0.0000    0.0000 C   0  0  0  0  0  0  0  0  0  0  0  0
    3.5260   -1.2990    0.0000 O   0  0  0  0  0  0  0  0  0  0  0  0
    1.2760    0.0000    0.0000 N   0  0  0  0  0  0  0  0  0  0  0  0
    0.3943    1.2135    0.0000 C   0  0  0  0  0  0  0  0  0  0  0  0
   -1.0323    0.7500    0.0000 C   0  0  0  0  0  0  0  0  0  0  0  0
   -1.0323   -0.7500    0.0000 C   0  0  0  0  0  0  0  0  0  0  0  0
    0.3943   -1.2135    0.0000 C   0  0  0  0  0  0  0  0  0  0  0  0
    0.8578   -2.6401    0.0000 C   0  0  0  0  0  0  0  0  0  0  0  0
    2.3250   -2.9520    0.0000 O   0  0  0  0  0  0  0  0  0  0  0  0
   -0.1459   -3.7548    0.0000 N   0  0  0  0  0  0  0  0  0  0  0  0
    0.3177   -5.1814    0.0000 C   0  0  0  0  0  0  0  0  0  0  0  0
   -0.6860   -6.2961    0.0000 C   0  0  0  0  0  0  0  0  0  0  0  0
   -0.2225   -7.7227    0.0000 C   0  0  0  0  0  0  0  0  0  0  0  0
   -2.1533   -5.9843    0.0000 C   0  0  0  0  0  0  0  0  0  0  0  0
    1.7849   -5.4933    0.0000 C   0  0  0  0  0  0  0  0  0  0  0  0
    2.7886   -4.3786    0.0000 O   0  0  0  0  0  0  0  0  0  0  0  0
    2.2484   -6.9199    0.0000 N   0  0  0  0  0  0  0  0  0  0  0  0
    3.7156   -7.2317    0.0000 C   0  0  0  0  0  0  0  0  0  0  0  0
    4.1791   -8.6583    0.0000 C   0  0  0  0  0  0  0  0  0  0  0  0
    5.6464   -8.9702    0.0000 C   0  0  0  0  0  0  0  0  0  0  0  0
    7.1136   -9.2821    0.0000 C   0  0  0  0  0  0  0  0  0  0  0  0
    4.7193   -6.1170    0.0000 C   0  0  0  0  0  0  0  0  0  0  0  0
    4.2558   -4.6904    0.0000 O   0  0  0  0  0  0  0  0  0  0  0  0
    6.1865   -6.4289    0.0000 O   0  0  0  0  0  0  0  0  0  0  0  0
  1  2  1  0
  1  3  1  0
  3  4  1  6
  4  5  1  0
  5  6  1  0
  5  7  1  0
  3  8  1  0
  8  9  2  0
  8 10  1  0
 10 11  1  0
 11 12  1  6
 12 13  1  0
 13 14  1  0
 13 15  1  0
 11 16  1  0
 16 17  2  0
 16 18  1  0
 18 19  1  0
 19 20  1  0
 20 21  1  0
 21 22  1  0
 22 23  1  6
 23 24  2  0
 23 25  1  0
 26 25  1  6
 26 27  1  0
 27 28  1  0
 27 29  1  0
 26 30  1  0
 30 31  2  0
 30 32  1  0
 32 33  1  0
 33 34  1  6
 34 35  1  0
 35 36  3  0
 33 37  1  0
 37 38  2  0
 37 39  1  0
 22 18  1  0
M  END
$$$$

     RDKit          2D

 39 39  0  0  0  0  0  0  0  0999 V2000
    8.0260    1.2990    0.0000 N   0  0  0  0  0  0  0  0  0  0  0  0
    7.2760    0.0000    0.0000 C   0  0  0  0  0  0  0  0  0  0  0  0
    8.0260   -1.2990    0.0000 C   0  0  0  0  0  0  0  0  0  0  0  0
    9.5260   -1.2990    0.0000 C   0  0  0  0  0  0  0  0  0  0  0  0
   10.2760   -2.5981    0.0000 C   0  0  0  0  0  0  0  0  0  0  0  0
   10.2760    0.0000    0.0000 C   0  0  0  0  0  0  0  0  0  0  0  0
    5.7760    0.0000    0.0000 C   0  0  0  0  0  0  0  0  0  0  0  0
    5.0260   -1.2990    0.0000 O   0  0  0  0  0  0  0  0  0  0  0  0
    5.0260    1.2990    0.0000 N   0  0  0  0  0  0  0  0  0  0  0  0
    5.7760    2.5981    0.0000 C   0  0  0  0  0  0  0  0  0  0  0  0
    3.5260    1.2990    0.0000 C   0  0  0  0  0  0  0  0  0  0  0  0
    2.7760    2.5981    0.0000 C   0  0  0  0  0  0  0  0  0  0  0  0
    3.5260    3.8971    0.0000 C   0  0  0  0  0  0  0  0  0  0  0  0
    2.7760    5.1962    0.0000 C   0  0  0  0  0  0  0  0  0  0  0  0
    5.0260    3.8971    0.0000 C   0  0  0  0  0  0  0  0  0  0  0  0
    2.7760    0.0000    0.0000 C   0  0  0  0  0  0  0  0  0  0  0  0
    3.5260   -1.2990    0.0000 O   0  0  0  0  0  0  0  0  0  0  0  0
    1.2760    0.0000    0.0000 N   0  0  0  0  0  0  0  0  0  0  0  0
    0.3943    1.2135    0.0000 C   0  0  0  0  0  0  0  0  0  0  0  0
   -1.0323    0.7500    0.0000 C   0  0  0  0  0  0  0  0  0  0  0  0
   -1.0323   -0.7500    0.0000 C   0  0  0  0  0  0  0  0  0  0  0  0
    0.3943   -1.2135    0.0000 C   0  0  0  0  0  0  0  0  0  0  0  0
    0.8578   -2.6401    0.0000 C   0  0  0  0  0  0  0  0  0  0  0  0
    2.3250   -2.9520    0.0000 O   0  0  0  0  0  0  0  0  0  0  0  0
   -0.1459   -3.7548    0.0000 N   0  0  0  0  0  0  0  0  0  0  0  0
    0.3177   -5.1814    0.0000 C   0  0  0  0  0  0  0  0  0  0  0  0
   -0.6860   -6.2961    0.0000 C   0  0  0  0  0  0  0  0  0  0  0  0
   -0.2225   -7.7227    0.0000 C   0  0  0  0  0  0  0  0  0  0  0  0
   -2.1533   -5.9843    0.0000 C   0  0  0  0  0  0  0  0  0  0  0  0
    1.7849   -5.4933    0.0000 C   0  0  0  0  0  0  0  0  0  0  0  0
    2.7886   -4.3786    0.0000 O   0  0  0  0  0  0  0  0  0  0  0  0
    2.2484   -6.9199    0.0000 N   0  0  0  0  0  0  0  0  0  0  0  0
    3.7156   -7.2317    0.0000 C   0  0  0  0  0  0  0  0  0  0  0  0
    4.1791   -8.6583    0.0000 C   0  0  0  0  0  0  0  0  0  0  0  0
    5.6464   -8.9702    0.0000 C   0  0  0  0  0  0  0  0  0  0  0  0
    7.1136   -9.2821    0.0000 C   0  0  0  0  0  0  0  0  0  0  0  0
    4.7193   -6.1170    0.0000 C   0  0  0  0  0  0  0  0  0  0  0  0
    4.2558   -4.6904    0.0000 O   0  0  0  0  0  0  0  0  0  0  0  0
    6.1865   -6.4289    0.0000 O   0  0  0  0  0  0  0  0  0  0  0  0
  2  1  1  1
  2  3  1  0
  3  4  1  0
  4  5  1  0
  4  6  1  0
  2  7  1  0
  7  8  2  0
  7  9  1  0
  9 10  1  0
  9 11  1  0
 11 12  1  6
 12 13  1  0
 13 14  1  0
 13 15  1  0
 11 16  1  0
 16 17  2  0
 16 18  1  0
 18 19  1  0
 19 20  1  0
 20 21  1  0
 21 22  1  0
 22 23  1  6
 23 24  2  0
 23 25  1  0
 26 25  1  6
 26 27  1  0
 27 28  1  0
 27 29  1  0
 26 30  1  0
 30 31  2  0
 30 32  1  0
 32 33  1  0
 33 34  1  6
 34 35  1  0
 35 36  3  0
 33 37  1  0
 37 38  2  0
 37 39  1  0
 22 18  1  0
M  END
$$$$

     RDKit          2D

 39 39  0  0  0  0  0  0  0  0999 V2000
    8.0260    1.2990    0.0000 N   0  0  0  0  0  0  0  0  0  0  0  0
    7.2760    0.0000    0.0000 C   0  0  0  0  0  0  0  0  0  0  0  0
    8.0260   -1.2990    0.0000 C   0  0  0  0  0  0  0  0  0  0  0  0
    9.5260   -1.2990    0.0000 C   0  0  0  0  0  0  0  0  0  0  0  0
   10.2760   -2.5981    0.0000 C   0  0  0  0  0  0  0  0  0  0  0  0
   10.2760    0.0000    0.0000 C   0  0  0  0  0  0  0  0  0  0  0  0
    5.7760    0.0000    0.0000 C   0  0  0  0  0  0  0  0  0  0  0  0
    5.0260   -1.2990    0.0000 O   0  0  0  0  0  0  0  0  0  0  0  0
    5.0260    1.2990    0.0000 N   0  0  0  0  0  0  0  0  0  0  0  0
    5.7760    2.5981    0.0000 C   0  0  0  0  0  0  0  0  0  0  0  0
    3.5260    1.2990    0.0000 C   0  0  0  0  0  0  0  0  0  0  0  0
    2.7760    2.5981    0.0000 C   0  0  0  0  0  0  0  0  0  0  0  0
    3.5260    3.8971    0.0000 C   0  0  0  0  0  0  0  0  0  0  0  0
    2.7760    5.1962    0.0000 C   0  0  0  0  0  0  0  0  0  0  0  0
    5.0260    3.8971    0.0000 C   0  0  0  0  0  0  0  0  0  0  0  0
    2.7760    0.0000    0.0000 C   0  0  0  0  0  0  0  0  0  0  0  0
    3.5260   -1.2990    0.0000 O   0  0  0  0  0  0  0  0  0  0  0  0
    1.2760    0.0000    0.0000 N   0  0  0  0  0  0  0  0  0  0  0  0
    0.3943    1.2135    0.0000 C   0  0  0  0  0  0  0  0  0  0  0  0
   -1.0323    0.7500    0.0000 C   0  0  0  0  0  0  0  0  0  0  0  0
   -1.0323   -0.7500    0.0000 C   0  0  0  0  0  0  0  0  0  0  0  0
    0.3943   -1.2135    0.0000 C   0  0  0  0  0  0  0  0  0  0  0  0
    0.8578   -2.6401    0.0000 C   0  0  0  0  0  0  0  0  0  0  0  0
    2.3250   -2.9520    0.0000 O   0  0  0  0  0  0  0  0  0  0  0  0
   -0.1459   -3.7548    0.0000 N   0  0  0  0  0  0  0  0  0  0  0  0
    0.3177   -5.1814    0.0000 C   0  0  0  0  0  0  0  0  0  0  0  0
   -0.6860   -6.2961    0.0000 C   0  0  0  0  0  0  0  0  0  0  0  0
   -0.2225   -7.7227    0.0000 C   0  0  0  0  0  0  0  0  0  0  0  0
   -2.1533   -5.9843    0.0000 C   0  0  0  0  0  0  0  0  0  0  0  0
    1.7849   -5.4933    0.0000 C   0  0  0  0  0  0  0  0  0  0  0  0
    2.7886   -4.3786    0.0000 O   0  0  0  0  0  0  0  0  0  0  0  0
    2.2484   -6.9199    0.0000 N   0  0  0  0  0  0  0  0  0  0  0  0
    3.7156   -7.2317    0.0000 C   0  0  0  0  0  0  0  0  0  0  0  0
    4.1791   -8.6583    0.0000 C   0  0  0  0  0  0  0  0  0  0  0  0
    5.6464   -8.9702    0.0000 C   0  0  0  0  0  0  0  0  0  0  0  0
    7.1136   -9.2821    0.0000 C   0  0  0  0  0  0  0  0  0  0  0  0
    4.7193   -6.1170    0.0000 C   0  0  0  0  0  0  0  0  0  0  0  0
    4.2558   -4.6904    0.0000 O   0  0  0  0  0  0  0  0  0  0  0  0
    6.1865   -6.4289    0.0000 O   0  0  0  0  0  0  0  0  0  0  0  0
  2  1  1  6
  2  3  1  0
  3  4  1  0
  4  5  1  0
  4  6  1  0
  2  7  1  0
  7  8  2  0
  7  9  1  0
  9 10  1  0
  9 11  1  0
 11 12  1  6
 12 13  1  0
 13 14  1  0
 13 15  1  0
 11 16  1  0
 16 17  2  0
 16 18  1  0
 18 19  1  0
 19 20  1  0
 20 21  1  0
 21 22  1  0
 22 23  1  6
 23 24  2  0
 23 25  1  0
 26 25  1  6
 26 27  1  0
 27 28  1  0
 27 29  1  0
 26 30  1  0
 30 31  2  0
 30 32  1  0
 32 33  1  0
 33 34  1  6
 34 35  1  0
 35 36  3  0
 33 37  1  0
 37 38  2  0
 37 39  1  0
 22 18  1  0
M  END
$$$$

     RDKit          2D

 23 22  0  0  0  0  0  0  0  0999 V2000
    3.8971    2.2500    0.0000 N   0  0  0  0  0  0  0  0  0  0  0  0
    2.5981    3.0000    0.0000 C   0  0  0  0  0  0  0  0  0  0  0  0
    1.2990    2.2500    0.0000 C   0  0  0  0  0  0  0  0  0  0  0  0
    1.2990    0.7500    0.0000 C   0  0  0  0  0  0  0  0  0  0  0  0
    0.0000    0.0000    0.0000 C   0  0  0  0  0  0  0  0  0  0  0  0
    2.5981   -0.0000    0.0000 C   0  0  0  0  0  0  0  0  0  0  0  0
    2.5981    4.5000    0.0000 C   0  0  0  0  0  0  0  0  0  0  0  0
    1.2990    5.2500    0.0000 O   0  0  0  0  0  0  0  0  0  0  0  0
    3.8971    5.2500    0.0000 N   0  0  0  0  0  0  0  0  0  0  0  0
    3.8971    6.7500    0.0000 C   0  0  0  0  0  0  0  0  0  0  0  0
    5.1962    7.5000    0.0000 C   0  0  0  0  0  0  0  0  0  0  0  0
    5.1962    9.0000    0.0000 C   0  0  0  0  0  0  0  0  0  0  0  0
    6.4952    6.7500    0.0000 C   0  0  0  0  0  0  0  0  0  0  0  0
    2.5981    7.5000    0.0000 C   0  0  0  0  0  0  0  0  0  0  0  0
    1.2990    6.7500    0.0000 O   0  0  0  0  0  0  0  0  0  0  0  0
    2.5981    9.0000    0.0000 N   0  0  0  0  0  0  0  0  0  0  0  0
    1.2990    9.7500    0.0000 C   0  0  0  0  0  0  0  0  0  0  0  0
    1.2990   11.2500    0.0000 C   0  0  0  0  0  0  0  0  0  0  0  0
    0.0000   12.0000    0.0000 C   0  0  0  0  0  0  0  0  0  0  0  0
   -1.2990   12.7500    0.0000 C   0  0  0  0  0  0  0  0  0  0  0  0
    0.0000    9.0000    0.0000 C   0  0  0  0  0  0  0  0  0  0  0  0
    0.0000    7.5000    0.0000 O   0  0  0  0  0  0  0  0  0  0  0  0
   -1.2990    9.7500    0.0000 O   0  0  0  0  0  0  0  0  0  0  0  0
  2  1  1  1
  2  3  1  0
  3  4  1  0
  4  5  1  0
  4  6  1  0
  2  7  1  0
  7  8  2  0
  7  9  1  0
 10  9  1  1
 10 11  1  0
 11 12  1  0
 11 13  1  0
 10 14  1  0
 14 15  2  0
 14 16  1  0
 16 17  1  0
 17 18  1  6
 18 19  1  0
 19 20  3  0
 17 21  1  0
 21 22  2  0
 21 23  1  0
M  END
$$$$

     RDKit          2D

 23 22  0  0  0  0  0  0  0  0999 V2000
    3.8971    2.2500    0.0000 N   0  0  0  0  0  0  0  0  0  0  0  0
    2.5981    3.0000    0.0000 C   0  0  0  0  0  0  0  0  0  0  0  0
    1.2990    2.2500    0.0000 C   0  0  0  0  0  0  0  0  0  0  0  0
    1.2990    0.7500    0.0000 C   0  0  0  0  0  0  0  0  0  0  0  0
    0.0000    0.0000    0.0000 C   0  0  0  0  0  0  0  0  0  0  0  0
    2.5981   -0.0000    0.0000 C   0  0  0  0  0  0  0  0  0  0  0  0
    2.5981    4.5000    0.0000 C   0  0  0  0  0  0  0  0  0  0  0  0
    1.2990    5.2500    0.0000 O   0  0  0  0  0  0  0  0  0  0  0  0
    3.8971    5.2500    0.0000 N   0  0  0  0  0  0  0  0  0  0  0  0
    3.8971    6.7500    0.0000 C   0  0  0  0  0  0  0  0  0  0  0  0
    5.1962    7.5000    0.0000 C   0  0  0  0  0  0  0  0  0  0  0  0
    5.1962    9.0000    0.0000 C   0  0  0  0  0  0  0  0  0  0  0  0
    6.4952    6.7500    0.0000 C   0  0  0  0  0  0  0  0  0  0  0  0
    2.5981    7.5000    0.0000 C   0  0  0  0  0  0  0  0  0  0  0  0
    1.2990    6.7500    0.0000 O   0  0  0  0  0  0  0  0  0  0  0  0
    2.5981    9.0000    0.0000 N   0  0  0  0  0  0  0  0  0  0  0  0
    1.2990    9.7500    0.0000 C   0  0  0  0  0  0  0  0  0  0  0  0
    1.2990   11.2500    0.0000 C   0  0  0  0  0  0  0  0  0  0  0  0
    0.0000   12.0000    0.0000 C   0  0  0  0  0  0  0  0  0  0  0  0
   -1.2990   12.7500    0.0000 C   0  0  0  0  0  0  0  0  0  0  0  0
    0.0000    9.0000    0.0000 C   0  0  0  0  0  0  0  0  0  0  0  0
    0.0000    7.5000    0.0000 O   0  0  0  0  0  0  0  0  0  0  0  0
   -1.2990    9.7500    0.0000 O   0  0  0  0  0  0  0  0  0  0  0  0
  2  1  1  6
  2  3  1  0
  3  4  1  0
  4  5  1  0
  4  6  1  0
  2  7  1  0
  7  8  2  0
  7  9  1  0
 10  9  1  1
 10 11  1  0
 11 12  1  0
 11 13  1  0
 10 14  1  0
 14 15  2  0
 14 16  1  0
 16 17  1  0
 17 18  1  6
 18 19  1  0
 19 20  3  0
 17 21  1  0
 21 22  2  0
 21 23  1  0
M  END
$$$$

     RDKit          2D

 22 21  0  0  0  0  0  0  0  0999 V2000
    0.0000    3.0000    0.0000 N   0  0  0  0  0  0  0  0  0  0  0  0
    1.2990    2.2500    0.0000 C   0  0  0  0  0  0  0  0  0  0  0  0
    1.2990    0.7500    0.0000 C   0  0  0  0  0  0  0  0  0  0  0  0
    0.0000    0.0000    0.0000 C   0  0  0  0  0  0  0  0  0  0  0  0
    2.5981   -0.0000    0.0000 C   0  0  0  0  0  0  0  0  0  0  0  0
    2.5981    3.0000    0.0000 C   0  0  0  0  0  0  0  0  0  0  0  0
    3.8971    2.2500    0.0000 O   0  0  0  0  0  0  0  0  0  0  0  0
    2.5981    4.5000    0.0000 N   0  0  0  0  0  0  0  0  0  0  0  0
    3.8971    5.2500    0.0000 C   0  0  0  0  0  0  0  0  0  0  0  0
    3.8971    6.7500    0.0000 C   0  0  0  0  0  0  0  0  0  0  0  0
    5.1962    7.5000    0.0000 C   0  0  0  0  0  0  0  0  0  0  0  0
    2.5981    7.5000    0.0000 C   0  0  0  0  0  0  0  0  0  0  0  0
    5.1962    4.5000    0.0000 C   0  0  0  0  0  0  0  0  0  0  0  0
    5.1962    3.0000    0.0000 O   0  0  0  0  0  0  0  0  0  0  0  0
    6.4952    5.2500    0.0000 N   0  0  0  0  0  0  0  0  0  0  0  0
    7.7942    4.5000    0.0000 C   0  0  0  0  0  0  0  0  0  0  0  0
    9.0933    5.2500    0.0000 C   0  0  0  0  0  0  0  0  0  0  0  0
   10.3923    4.5000    0.0000 C   0  0  0  0  0  0  0  0  0  0  0  0
   11.6913    3.7500    0.0000 C   0  0  0  0  0  0  0  0  0  0  0  0
    7.7942    3.0000    0.0000 C   0  0  0  0  0  0  0  0  0  0  0  0
    6.4952    2.2500    0.0000 O   0  0  0  0  0  0  0  0  0  0  0  0
    9.0933    2.2500    0.0000 O   0  0  0  0  0  0  0  0  0  0  0  0
  2  1  1  6
  2  3  1  0
  3  4  1  0
  3  5  1  0
  2  6  1  0
  6  7  2  0
  6  8  1  0
  9  8  1  6
  9 10  1  0
 10 11  1  0
 10 12  1  0
  9 13  1  0
 13 14  2  0
 13 15  1  0
 15 16  1  0
 16 17  1  1
 17 18  1  0
 18 19  3  0
 16 20  1  0
 20 21  2  0
 20 22  1  0
M  END
$$$$

     RDKit          2D

 22 21  0  0  0  0  0  0  0  0999 V2000
    0.0000    3.0000    0.0000 N   0  0  0  0  0  0  0  0  0  0  0  0
    1.2990    2.2500    0.0000 C   0  0  0  0  0  0  0  0  0  0  0  0
    1.2990    0.7500    0.0000 C   0  0  0  0  0  0  0  0  0  0  0  0
    0.0000    0.0000    0.0000 C   0  0  0  0  0  0  0  0  0  0  0  0
    2.5981   -0.0000    0.0000 C   0  0  0  0  0  0  0  0  0  0  0  0
    2.5981    3.0000    0.0000 C   0  0  0  0  0  0  0  0  0  0  0  0
    3.8971    2.2500    0.0000 O   0  0  0  0  0  0  0  0  0  0  0  0
    2.5981    4.5000    0.0000 N   0  0  0  0  0  0  0  0  0  0  0  0
    3.8971    5.2500    0.0000 C   0  0  0  0  0  0  0  0  0  0  0  0
    3.8971    6.7500    0.0000 C   0  0  0  0  0  0  0  0  0  0  0  0
    5.1962    7.5000    0.0000 C   0  0  0  0  0  0  0  0  0  0  0  0
    2.5981    7.5000    0.0000 C   0  0  0  0  0  0  0  0  0  0  0  0
    5.1962    4.5000    0.0000 C   0  0  0  0  0  0  0  0  0  0  0  0
    5.1962    3.0000    0.0000 O   0  0  0  0  0  0  0  0  0  0  0  0
    6.4952    5.2500    0.0000 N   0  0  0  0  0  0  0  0  0  0  0  0
    7.7942    4.5000    0.0000 C   0  0  0  0  0  0  0  0  0  0  0  0
    9.0933    5.2500    0.0000 C   0  0  0  0  0  0  0  0  0  0  0  0
   10.3923    4.5000    0.0000 C   0  0  0  0  0  0  0  0  0  0  0  0
   11.6913    3.7500    0.0000 C   0  0  0  0  0  0  0  0  0  0  0  0
    7.7942    3.0000    0.0000 C   0  0  0  0  0  0  0  0  0  0  0  0
    6.4952    2.2500    0.0000 O   0  0  0  0  0  0  0  0  0  0  0  0
    9.0933    2.2500    0.0000 O   0  0  0  0  0  0  0  0  0  0  0  0
  2  1  1  1
  2  3  1  0
  3  4  1  0
  3  5  1  0
  2  6  1  0
  6  7  2  0
  6  8  1  0
  9  8  1  6
  9 10  1  0
 10 11  1  0
 10 12  1  0
  9 13  1  0
 13 14  2  0
 13 15  1  0
 15 16  1  0
 16 17  1  1
 17 18  1  0
 18 19  3  0
 16 20  1  0
 20 21  2  0
 20 22  1  0
M  END
$$$$

     RDKit          2D

 24 23  0  0  0  0  0  0  0  0999 V2000
    1.2990    0.7500    0.0000 N   0  0  0  0  0  0  0  0  0  0  0  0
    0.0000    0.0000    0.0000 C   0  0  0  0  0  0  0  0  0  0  0  0
    2.5981   -0.0000    0.0000 C   0  0  0  0  0  0  0  0  0  0  0  0
    3.8971    0.7500    0.0000 C   0  0  0  0  0  0  0  0  0  0  0  0
    5.1962   -0.0000    0.0000 C   0  0  0  0  0  0  0  0  0  0  0  0
    6.4952    0.7500    0.0000 C   0  0  0  0  0  0  0  0  0  0  0  0
    5.1962   -1.5000    0.0000 C   0  0  0  0  0  0  0  0  0  0  0  0
    2.5981   -1.5000    0.0000 C   0  0  0  0  0  0  0  0  0  0  0  0
    1.2990   -2.2500    0.0000 O   0  0  0  0  0  0  0  0  0  0  0  0
    3.8971   -2.2500    0.0000 N   0  0  0  0  0  0  0  0  0  0  0  0
    3.8971   -3.7500    0.0000 C   0  0  0  0  0  0  0  0  0  0  0  0
    5.1962   -4.5000    0.0000 C   0  0  0  0  0  0  0  0  0  0  0  0
    5.1962   -6.0000    0.0000 C   0  0  0  0  0  0  0  0  0  0  0  0
    6.4952   -3.7500    0.0000 C   0  0  0  0  0  0  0  0  0  0  0  0
    2.5981   -4.5000    0.0000 C   0  0  0  0  0  0  0  0  0  0  0  0
    1.2990   -3.7500    0.0000 O   0  0  0  0  0  0  0  0  0  0  0  0
    2.5981   -6.0000    0.0000 N   0  0  0  0  0  0  0  0  0  0  0  0
    1.2990   -6.7500    0.0000 C   0  0  0  0  0  0  0  0  0  0  0  0
    1.2990   -8.2500    0.0000 C   0  0  0  0  0  0  0  0  0  0  0  0
    0.0000   -9.0000    0.0000 C   0  0  0  0  0  0  0  0  0  0  0  0
   -1.2990   -9.7500    0.0000 C   0  0  0  0  0  0  0  0  0  0  0  0
    0.0000   -6.0000    0.0000 C   0  0  0  0  0  0  0  0  0  0  0  0
    0.0000   -4.5000    0.0000 O   0  0  0  0  0  0  0  0  0  0  0  0
   -1.2990   -6.7500    0.0000 O   0  0  0  0  0  0  0  0  0  0  0  0
  1  2  1  0
  1  3  1  0
  3  4  1  1
  4  5  1  0
  5  6  1  0
  5  7  1  0
  3  8  1  0
  8  9  2  0
  8 10  1  0
 11 10  1  6
 11 12  1  0
 12 13  1  0
 12 14  1  0
 11 15  1  0
 15 16  2  0
 15 17  1  0
 17 18  1  0
 18 19  1  1
 19 20  1  0
 20 21  3  0
 18 22  1  0
 22 23  2  0
 22 24  1  0
M  END
$$$$

     RDKit          2D

 24 23  0  0  0  0  0  0  0  0999 V2000
    1.2990    0.7500    0.0000 N   0  0  0  0  0  0  0  0  0  0  0  0
    0.0000    0.0000    0.0000 C   0  0  0  0  0  0  0  0  0  0  0  0
    2.5981   -0.0000    0.0000 C   0  0  0  0  0  0  0  0  0  0  0  0
    3.8971    0.7500    0.0000 C   0  0  0  0  0  0  0  0  0  0  0  0
    5.1962   -0.0000    0.0000 C   0  0  0  0  0  0  0  0  0  0  0  0
    6.4952    0.7500    0.0000 C   0  0  0  0  0  0  0  0  0  0  0  0
    5.1962   -1.5000    0.0000 C   0  0  0  0  0  0  0  0  0  0  0  0
    2.5981   -1.5000    0.0000 C   0  0  0  0  0  0  0  0  0  0  0  0
    1.2990   -2.2500    0.0000 O   0  0  0  0  0  0  0  0  0  0  0  0
    3.8971   -2.2500    0.0000 N   0  0  0  0  0  0  0  0  0  0  0  0
    3.8971   -3.7500    0.0000 C   0  0  0  0  0  0  0  0  0  0  0  0
    5.1962   -4.5000    0.0000 C   0  0  0  0  0  0  0  0  0  0  0  0
    5.1962   -6.0000    0.0000 C   0  0  0  0  0  0  0  0  0  0  0  0
    6.4952   -3.7500    0.0000 C   0  0  0  0  0  0  0  0  0  0  0  0
    2.5981   -4.5000    0.0000 C   0  0  0  0  0  0  0  0  0  0  0  0
    1.2990   -3.7500    0.0000 O   0  0  0  0  0  0  0  0  0  0  0  0
    2.5981   -6.0000    0.0000 N   0  0  0  0  0  0  0  0  0  0  0  0
    1.2990   -6.7500    0.0000 C   0  0  0  0  0  0  0  0  0  0  0  0
    1.2990   -8.2500    0.0000 C   0  0  0  0  0  0  0  0  0  0  0  0
    0.0000   -9.0000    0.0000 C   0  0  0  0  0  0  0  0  0  0  0  0
   -1.2990   -9.7500    0.0000 C   0  0  0  0  0  0  0  0  0  0  0  0
    0.0000   -6.0000    0.0000 C   0  0  0  0  0  0  0  0  0  0  0  0
    0.0000   -4.5000    0.0000 O   0  0  0  0  0  0  0  0  0  0  0  0
   -1.2990   -6.7500    0.0000 O   0  0  0  0  0  0  0  0  0  0  0  0
  1  2  1  0
  1  3  1  0
  3  4  1  6
  4  5  1  0
  5  6  1  0
  5  7  1  0
  3  8  1  0
  8  9  2  0
  8 10  1  0
 11 10  1  6
 11 12  1  0
 12 13  1  0
 12 14  1  0
 11 15  1  0
 15 16  2  0
 15 17  1  0
 17 18  1  0
 18 19  1  1
 19 20  1  0
 20 21  3  0
 18 22  1  0
 22 23  2  0
 22 24  1  0
M  END
$$$$

     RDKit          2D

 26 26  0  0  0  0  0  0  0  0999 V2000
    3.0000   -2.5981    0.0000 N   0  0  0  0  0  0  0  0  0  0  0  0
    3.7500   -1.2990    0.0000 C   0  0  0  0  0  0  0  0  0  0  0  0
    3.0000    0.0000    0.0000 C   0  0  0  0  0  0  0  0  0  0  0  0
    1.5000    0.0000    0.0000 C   0  0  0  0  0  0  0  0  0  0  0  0
    0.7500   -1.2990    0.0000 C   0  0  0  0  0  0  0  0  0  0  0  0
   -0.7500   -1.2990    0.0000 C   0  0  0  0  0  0  0  0  0  0  0  0
   -1.5000    0.0000    0.0000 C   0  0  0  0  0  0  0  0  0  0  0  0
   -0.7500    1.2990    0.0000 C   0  0  0  0  0  0  0  0  0  0  0  0
    0.7500    1.2990    0.0000 C   0  0  0  0  0  0  0  0  0  0  0  0
    5.2500   -1.2990    0.0000 C   0  0  0  0  0  0  0  0  0  0  0  0
    6.0000    0.0000    0.0000 O   0  0  0  0  0  0  0  0  0  0  0  0
    6.0000   -2.5981    0.0000 N   0  0  0  0  0  0  0  0  0  0  0  0
    7.5000   -2.5981    0.0000 C   0  0  0  0  0  0  0  0  0  0  0  0
    8.2500   -3.8971    0.0000 C   0  0  0  0  0  0  0  0  0  0  0  0
    9.7500   -3.8971    0.0000 C   0  0  0  0  0  0  0  0  0  0  0  0
    7.5000   -5.1962    0.0000 C   0  0  0  0  0  0  0  0  0  0  0  0
    8.2500   -1.2990    0.0000 C   0  0  0  0  0  0  0  0  0  0  0  0
    7.5000    0.0000    0.0000 O   0  0  0  0  0  0  0  0  0  0  0  0
    9.7500   -1.2990    0.0000 N   0  0  0  0  0  0  0  0  0  0  0  0
   10.5000    0.0000    0.0000 C   0  0  0  0  0  0  0  0  0  0  0  0
   12.0000    0.0000    0.0000 C   0  0  0  0  0  0  0  0  0  0  0  0
   12.7500    1.2990    0.0000 C   0  0  0  0  0  0  0  0  0  0  0  0
   13.5000    2.5981    0.0000 C   0  0  0  0  0  0  0  0  0  0  0  0
    9.7500    1.2990    0.0000 C   0  0  0  0  0  0  0  0  0  0  0  0
    8.2500    1.2990    0.0000 O   0  0  0  0  0  0  0  0  0  0  0  0
   10.5000    2.5981    0.0000 O   0  0  0  0  0  0  0  0  0  0  0  0
  2  1  1  1
  2  3  1  0
  3  4  1  0
  4  5  2  0
  5  6  1  0
  6  7  2  0
  7  8  1  0
  8  9  2  0
  2 10  1  0
 10 11  2  0
 10 12  1  0
 13 12  1  1
 13 14  1  0
 14 15  1  0
 14 16  1  0
 13 17  1  0
 17 18  2  0
 17 19  1  0
 19 20  1  0
 20 21  1  6
 21 22  1  0
 22 23  3  0
 20 24  1  0
 24 25  2  0
 24 26  1  0
  9  4  1  0
M  END
$$$$

     RDKit          2D

 26 26  0  0  0  0  0  0  0  0999 V2000
    3.0000   -2.5981    0.0000 N   0  0  0  0  0  0  0  0  0  0  0  0
    3.7500   -1.2990    0.0000 C   0  0  0  0  0  0  0  0  0  0  0  0
    3.0000    0.0000    0.0000 C   0  0  0  0  0  0  0  0  0  0  0  0
    1.5000    0.0000    0.0000 C   0  0  0  0  0  0  0  0  0  0  0  0
    0.7500   -1.2990    0.0000 C   0  0  0  0  0  0  0  0  0  0  0  0
   -0.7500   -1.2990    0.0000 C   0  0  0  0  0  0  0  0  0  0  0  0
   -1.5000    0.0000    0.0000 C   0  0  0  0  0  0  0  0  0  0  0  0
   -0.7500    1.2990    0.0000 C   0  0  0  0  0  0  0  0  0  0  0  0
    0.7500    1.2990    0.0000 C   0  0  0  0  0  0  0  0  0  0  0  0
    5.2500   -1.2990    0.0000 C   0  0  0  0  0  0  0  0  0  0  0  0
    6.0000    0.0000    0.0000 O   0  0  0  0  0  0  0  0  0  0  0  0
    6.0000   -2.5981    0.0000 N   0  0  0  0  0  0  0  0  0  0  0  0
    7.5000   -2.5981    0.0000 C   0  0  0  0  0  0  0  0  0  0  0  0
    8.2500   -3.8971    0.0000 C   0  0  0  0  0  0  0  0  0  0  0  0
    9.7500   -3.8971    0.0000 C   0  0  0  0  0  0  0  0  0  0  0  0
    7.5000   -5.1962    0.0000 C   0  0  0  0  0  0  0  0  0  0  0  0
    8.2500   -1.2990    0.0000 C   0  0  0  0  0  0  0  0  0  0  0  0
    7.5000    0.0000    0.0000 O   0  0  0  0  0  0  0  0  0  0  0  0
    9.7500   -1.2990    0.0000 N   0  0  0  0  0  0  0  0  0  0  0  0
   10.5000    0.0000    0.0000 C   0  0  0  0  0  0  0  0  0  0  0  0
   12.0000    0.0000    0.0000 C   0  0  0  0  0  0  0  0  0  0  0  0
   12.7500    1.2990    0.0000 C   0  0  0  0  0  0  0  0  0  0  0  0
   13.5000    2.5981    0.0000 C   0  0  0  0  0  0  0  0  0  0  0  0
    9.7500    1.2990    0.0000 C   0  0  0  0  0  0  0  0  0  0  0  0
    8.2500    1.2990    0.0000 O   0  0  0  0  0  0  0  0  0  0  0  0
   10.5000    2.5981    0.0000 O   0  0  0  0  0  0  0  0  0  0  0  0
  2  1  1  6
  2  3  1  0
  3  4  1  0
  4  5  2  0
  5  6  1  0
  6  7  2  0
  7  8  1  0
  8  9  2  0
  2 10  1  0
 10 11  2  0
 10 12  1  0
 13 12  1  1
 13 14  1  0
 14 15  1  0
 14 16  1  0
 13 17  1  0
 17 18  2  0
 17 19  1  0
 19 20  1  0
 20 21  1  6
 21 22  1  0
 22 23  3  0
 20 24  1  0
 24 25  2  0
 24 26  1  0
  9  4  1  0
M  END
$$$$

     RDKit          2D

 27 27  0  0  0  0  0  0  0  0999 V2000
    3.0000   -2.5981    0.0000 N   0  0  0  0  0  0  0  0  0  0  0  0
    3.7500   -3.8971    0.0000 C   0  0  0  0  0  0  0  0  0  0  0  0
    3.7500   -1.2990    0.0000 C   0  0  0  0  0  0  0  0  0  0  0  0
    3.0000    0.0000    0.0000 C   0  0  0  0  0  0  0  0  0  0  0  0
    1.5000    0.0000    0.0000 C   0  0  0  0  0  0  0  0  0  0  0  0
    0.7500   -1.2990    0.0000 C   0  0  0  0  0  0  0  0  0  0  0  0
   -0.7500   -1.2990    0.0000 C   0  0  0  0  0  0  0  0  0  0  0  0
   -1.5000    0.0000    0.0000 C   0  0  0  0  0  0  0  0  0  0  0  0
   -0.7500    1.2990    0.0000 C   0  0  0  0  0  0  0  0  0  0  0  0
    0.7500    1.2990    0.0000 C   0  0  0  0  0  0  0  0  0  0  0  0
    5.2500   -1.2990    0.0000 C   0  0  0  0  0  0  0  0  0  0  0  0
    6.0000    0.0000    0.0000 O   0  0  0  0  0  0  0  0  0  0  0  0
    6.0000   -2.5981    0.0000 N   0  0  0  0  0  0  0  0  0  0  0  0
    7.5000   -2.5981    0.0000 C   0  0  0  0  0  0  0  0  0  0  0  0
    8.2500   -3.8971    0.0000 C   0  0  0  0  0  0  0  0  0  0  0  0
    9.7500   -3.8971    0.0000 C   0  0  0  0  0  0  0  0  0  0  0  0
    7.5000   -5.1962    0.0000 C   0  0  0  0  0  0  0  0  0  0  0  0
    8.2500   -1.2990    0.0000 C   0  0  0  0  0  0  0  0  0  0  0  0
    7.5000    0.0000    0.0000 O   0  0  0  0  0  0  0  0  0  0  0  0
    9.7500   -1.2990    0.0000 N   0  0  0  0  0  0  0  0  0  0  0  0
   10.5000    0.0000    0.0000 C   0  0  0  0  0  0  0  0  0  0  0  0
   12.0000    0.0000    0.0000 C   0  0  0  0  0  0  0  0  0  0  0  0
   12.7500    1.2990    0.0000 C   0  0  0  0  0  0  0  0  0  0  0  0
   13.5000    2.5981    0.0000 C   0  0  0  0  0  0  0  0  0  0  0  0
    9.7500    1.2990    0.0000 C   0  0  0  0  0  0  0  0  0  0  0  0
    8.2500    1.2990    0.0000 O   0  0  0  0  0  0  0  0  0  0  0  0
   10.5000    2.5981    0.0000 O   0  0  0  0  0  0  0  0  0  0  0  0
  1  2  1  0
  1  3  1  0
  3  4  1  1
  4  5  1  0
  5  6  2  0
  6  7  1  0
  7  8  2  0
  8  9  1  0
  9 10  2  0
  3 11  1  0
 11 12  2  0
 11 13  1  0
 14 13  1  1
 14 15  1  0
 15 16  1  0
 15 17  1  0
 14 18  1  0
 18 19  2  0
 18 20  1  0
 20 21  1  0
 21 22  1  6
 22 23  1  0
 23 24  3  0
 21 25  1  0
 25 26  2  0
 25 27  1  0
 10  5  1  0
M  END
$$$$

     RDKit          2D

 27 27  0  0  0  0  0  0  0  0999 V2000
    3.0000   -2.5981    0.0000 N   0  0  0  0  0  0  0  0  0  0  0  0
    3.7500   -3.8971    0.0000 C   0  0  0  0  0  0  0  0  0  0  0  0
    3.7500   -1.2990    0.0000 C   0  0  0  0  0  0  0  0  0  0  0  0
    3.0000    0.0000    0.0000 C   0  0  0  0  0  0  0  0  0  0  0  0
    1.5000    0.0000    0.0000 C   0  0  0  0  0  0  0  0  0  0  0  0
    0.7500   -1.2990    0.0000 C   0  0  0  0  0  0  0  0  0  0  0  0
   -0.7500   -1.2990    0.0000 C   0  0  0  0  0  0  0  0  0  0  0  0
   -1.5000    0.0000    0.0000 C   0  0  0  0  0  0  0  0  0  0  0  0
   -0.7500    1.2990    0.0000 C   0  0  0  0  0  0  0  0  0  0  0  0
    0.7500    1.2990    0.0000 C   0  0  0  0  0  0  0  0  0  0  0  0
    5.2500   -1.2990    0.0000 C   0  0  0  0  0  0  0  0  0  0  0  0
    6.0000    0.0000    0.0000 O   0  0  0  0  0  0  0  0  0  0  0  0
    6.0000   -2.5981    0.0000 N   0  0  0  0  0  0  0  0  0  0  0  0
    7.5000   -2.5981    0.0000 C   0  0  0  0  0  0  0  0  0  0  0  0
    8.2500   -3.8971    0.0000 C   0  0  0  0  0  0  0  0  0  0  0  0
    9.7500   -3.8971    0.0000 C   0  0  0  0  0  0  0  0  0  0  0  0
    7.5000   -5.1962    0.0000 C   0  0  0  0  0  0  0  0  0  0  0  0
    8.2500   -1.2990    0.0000 C   0  0  0  0  0  0  0  0  0  0  0  0
    7.5000    0.0000    0.0000 O   0  0  0  0  0  0  0  0  0  0  0  0
    9.7500   -1.2990    0.0000 N   0  0  0  0  0  0  0  0  0  0  0  0
   10.5000    0.0000    0.0000 C   0  0  0  0  0  0  0  0  0  0  0  0
   12.0000    0.0000    0.0000 C   0  0  0  0  0  0  0  0  0  0  0  0
   12.7500    1.2990    0.0000 C   0  0  0  0  0  0  0  0  0  0  0  0
   13.5000    2.5981    0.0000 C   0  0  0  0  0  0  0  0  0  0  0  0
    9.7500    1.2990    0.0000 C   0  0  0  0  0  0  0  0  0  0  0  0
    8.2500    1.2990    0.0000 O   0  0  0  0  0  0  0  0  0  0  0  0
   10.5000    2.5981    0.0000 O   0  0  0  0  0  0  0  0  0  0  0  0
  1  2  1  0
  1  3  1  0
  3  4  1  6
  4  5  1  0
  5  6  2  0
  6  7  1  0
  7  8  2  0
  8  9  1  0
  9 10  2  0
  3 11  1  0
 11 12  2  0
 11 13  1  0
 14 13  1  1
 14 15  1  0
 15 16  1  0
 15 17  1  0
 14 18  1  0
 18 19  2  0
 18 20  1  0
 20 21  1  0
 21 22  1  6
 22 23  1  0
 23 24  3  0
 21 25  1  0
 25 26  2  0
 25 27  1  0
 10  5  1  0
M  END
$$$$

     RDKit          2D

 22 21  0  0  0  0  0  0  0  0999 V2000
    2.5981   -1.5000    0.0000 N   0  0  0  0  0  0  0  0  0  0  0  0
    2.5981   -0.0000    0.0000 C   0  0  0  0  0  0  0  0  0  0  0  0
    1.2990    0.7500    0.0000 C   0  0  0  0  0  0  0  0  0  0  0  0
    1.2990    2.2500    0.0000 O   0  0  0  0  0  0  0  0  0  0  0  0
    0.0000    0.0000    0.0000 C   0  0  0  0  0  0  0  0  0  0  0  0
    3.8971    0.7500    0.0000 C   0  0  0  0  0  0  0  0  0  0  0  0
    3.8971    2.2500    0.0000 O   0  0  0  0  0  0  0  0  0  0  0  0
    5.1962   -0.0000    0.0000 N   0  0  0  0  0  0  0  0  0  0  0  0
    6.4952    0.7500    0.0000 C   0  0  0  0  0  0  0  0  0  0  0  0
    7.7942   -0.0000    0.0000 C   0  0  0  0  0  0  0  0  0  0  0  0
    9.0933    0.7500    0.0000 C   0  0  0  0  0  0  0  0  0  0  0  0
    7.7942   -1.5000    0.0000 C   0  0  0  0  0  0  0  0  0  0  0  0
    6.4952    2.2500    0.0000 C   0  0  0  0  0  0  0  0  0  0  0  0
    5.1962    3.0000    0.0000 O   0  0  0  0  0  0  0  0  0  0  0  0
    7.7942    3.0000    0.0000 N   0  0  0  0  0  0  0  0  0  0  0  0
    7.7942    4.5000    0.0000 C   0  0  0  0  0  0  0  0  0  0  0  0
    9.0933    5.2500    0.0000 C   0  0  0  0  0  0  0  0  0  0  0  0
    9.0933    6.7500    0.0000 C   0  0  0  0  0  0  0  0  0  0  0  0
    9.0933    8.2500    0.0000 C   0  0  0  0  0  0  0  0  0  0  0  0
    6.4952    5.2500    0.0000 C   0  0  0  0  0  0  0  0  0  0  0  0
    5.1962    4.5000    0.0000 O   0  0  0  0  0  0  0  0  0  0  0  0
    6.4952    6.7500    0.0000 O   0  0  0  0  0  0  0  0  0  0  0  0
  2  1  1  1
  2  3  1  0
  3  4  1  0
  3  5  1  1
  2  6  1  0
  6  7  2  0
  6  8  1  0
  9  8  1  1
  9 10  1  0
 10 11  1  0
 10 12  1  0
  9 13  1  0
 13 14  2  0
 13 15  1  0
 15 16  1  0
 16 17  1  6
 17 18  1  0
 18 19  3  0
 16 20  1  0
 20 21  2  0
 20 22  1  0
M  END
$$$$

     RDKit          2D

 22 21  0  0  0  0  0  0  0  0999 V2000
    2.5981   -1.5000    0.0000 N   0  0  0  0  0  0  0  0  0  0  0  0
    2.5981   -0.0000    0.0000 C   0  0  0  0  0  0  0  0  0  0  0  0
    1.2990    0.7500    0.0000 C   0  0  0  0  0  0  0  0  0  0  0  0
    1.2990    2.2500    0.0000 O   0  0  0  0  0  0  0  0  0  0  0  0
    0.0000    0.0000    0.0000 C   0  0  0  0  0  0  0  0  0  0  0  0
    3.8971    0.7500    0.0000 C   0  0  0  0  0  0  0  0  0  0  0  0
    3.8971    2.2500    0.0000 O   0  0  0  0  0  0  0  0  0  0  0  0
    5.1962   -0.0000    0.0000 N   0  0  0  0  0  0  0  0  0  0  0  0
    6.4952    0.7500    0.0000 C   0  0  0  0  0  0  0  0  0  0  0  0
    7.7942   -0.0000    0.0000 C   0  0  0  0  0  0  0  0  0  0  0  0
    9.0933    0.7500    0.0000 C   0  0  0  0  0  0  0  0  0  0  0  0
    7.7942   -1.5000    0.0000 C   0  0  0  0  0  0  0  0  0  0  0  0
    6.4952    2.2500    0.0000 C   0  0  0  0  0  0  0  0  0  0  0  0
    5.1962    3.0000    0.0000 O   0  0  0  0  0  0  0  0  0  0  0  0
    7.7942    3.0000    0.0000 N   0  0  0  0  0  0  0  0  0  0  0  0
    7.7942    4.5000    0.0000 C   0  0  0  0  0  0  0  0  0  0  0  0
    9.0933    5.2500    0.0000 C   0  0  0  0  0  0  0  0  0  0  0  0
    9.0933    6.7500    0.0000 C   0  0  0  0  0  0  0  0  0  0  0  0
    9.0933    8.2500    0.0000 C   0  0  0  0  0  0  0  0  0  0  0  0
    6.4952    5.2500    0.0000 C   0  0  0  0  0  0  0  0  0  0  0  0
    5.1962    4.5000    0.0000 O   0  0  0  0  0  0  0  0  0  0  0  0
    6.4952    6.7500    0.0000 O   0  0  0  0  0  0  0  0  0  0  0  0
  2  1  1  6
  2  3  1  0
  3  4  1  0
  3  5  1  1
  2  6  1  0
  6  7  2  0
  6  8  1  0
  9  8  1  1
  9 10  1  0
 10 11  1  0
 10 12  1  0
  9 13  1  0
 13 14  2  0
 13 15  1  0
 15 16  1  0
 16 17  1  6
 17 18  1  0
 18 19  3  0
 16 20  1  0
 20 21  2  0
 20 22  1  0
M  END
$$$$

     RDKit          2D

 23 22  0  0  0  0  0  0  0  0999 V2000
    1.2990    0.7500    0.0000 N   0  0  0  0  0  0  0  0  0  0  0  0
    0.0000    0.0000    0.0000 C   0  0  0  0  0  0  0  0  0  0  0  0
    2.5981   -0.0000    0.0000 C   0  0  0  0  0  0  0  0  0  0  0  0
    3.8971    0.7500    0.0000 C   0  0  0  0  0  0  0  0  0  0  0  0
    3.8971    2.2500    0.0000 O   0  0  0  0  0  0  0  0  0  0  0  0
    5.1962   -0.0000    0.0000 C   0  0  0  0  0  0  0  0  0  0  0  0
    2.5981   -1.5000    0.0000 C   0  0  0  0  0  0  0  0  0  0  0  0
    1.2990   -2.2500    0.0000 O   0  0  0  0  0  0  0  0  0  0  0  0
    3.8971   -2.2500    0.0000 N   0  0  0  0  0  0  0  0  0  0  0  0
    3.8971   -3.7500    0.0000 C   0  0  0  0  0  0  0  0  0  0  0  0
    5.1962   -4.5000    0.0000 C   0  0  0  0  0  0  0  0  0  0  0  0
    5.1962   -6.0000    0.0000 C   0  0  0  0  0  0  0  0  0  0  0  0
    6.4952   -3.7500    0.0000 C   0  0  0  0  0  0  0  0  0  0  0  0
    2.5981   -4.5000    0.0000 C   0  0  0  0  0  0  0  0  0  0  0  0
    1.2990   -3.7500    0.0000 O   0  0  0  0  0  0  0  0  0  0  0  0
    2.5981   -6.0000    0.0000 N   0  0  0  0  0  0  0  0  0  0  0  0
    1.2990   -6.7500    0.0000 C   0  0  0  0  0  0  0  0  0  0  0  0
    1.2990   -8.2500    0.0000 C   0  0  0  0  0  0  0  0  0  0  0  0
    0.0000   -9.0000    0.0000 C   0  0  0  0  0  0  0  0  0  0  0  0
   -1.2990   -9.7500    0.0000 C   0  0  0  0  0  0  0  0  0  0  0  0
    0.0000   -6.0000    0.0000 C   0  0  0  0  0  0  0  0  0  0  0  0
    0.0000   -4.5000    0.0000 O   0  0  0  0  0  0  0  0  0  0  0  0
   -1.2990   -6.7500    0.0000 O   0  0  0  0  0  0  0  0  0  0  0  0
  1  2  1  0
  3  1  1  1
  3  4  1  0
  4  5  1  0
  4  6  1  6
  3  7  1  0
  7  8  2  0
  7  9  1  0
 10  9  1  6
 10 11  1  0
 11 12  1  0
 11 13  1  0
 10 14  1  0
 14 15  2  0
 14 16  1  0
 16 17  1  0
 17 18  1  1
 18 19  1  0
 19 20  3  0
 17 21  1  0
 21 22  2  0
 21 23  1  0
M  END
$$$$

     RDKit          2D

 23 22  0  0  0  0  0  0  0  0999 V2000
    1.2990    0.7500    0.0000 N   0  0  0  0  0  0  0  0  0  0  0  0
    0.0000    0.0000    0.0000 C   0  0  0  0  0  0  0  0  0  0  0  0
    2.5981   -0.0000    0.0000 C   0  0  0  0  0  0  0  0  0  0  0  0
    3.8971    0.7500    0.0000 C   0  0  0  0  0  0  0  0  0  0  0  0
    3.8971    2.2500    0.0000 O   0  0  0  0  0  0  0  0  0  0  0  0
    5.1962   -0.0000    0.0000 C   0  0  0  0  0  0  0  0  0  0  0  0
    2.5981   -1.5000    0.0000 C   0  0  0  0  0  0  0  0  0  0  0  0
    1.2990   -2.2500    0.0000 O   0  0  0  0  0  0  0  0  0  0  0  0
    3.8971   -2.2500    0.0000 N   0  0  0  0  0  0  0  0  0  0  0  0
    3.8971   -3.7500    0.0000 C   0  0  0  0  0  0  0  0  0  0  0  0
    5.1962   -4.5000    0.0000 C   0  0  0  0  0  0  0  0  0  0  0  0
    5.1962   -6.0000    0.0000 C   0  0  0  0  0  0  0  0  0  0  0  0
    6.4952   -3.7500    0.0000 C   0  0  0  0  0  0  0  0  0  0  0  0
    2.5981   -4.5000    0.0000 C   0  0  0  0  0  0  0  0  0  0  0  0
    1.2990   -3.7500    0.0000 O   0  0  0  0  0  0  0  0  0  0  0  0
    2.5981   -6.0000    0.0000 N   0  0  0  0  0  0  0  0  0  0  0  0
    1.2990   -6.7500    0.0000 C   0  0  0  0  0  0  0  0  0  0  0  0
    1.2990   -8.2500    0.0000 C   0  0  0  0  0  0  0  0  0  0  0  0
    0.0000   -9.0000    0.0000 C   0  0  0  0  0  0  0  0  0  0  0  0
   -1.2990   -9.7500    0.0000 C   0  0  0  0  0  0  0  0  0  0  0  0
    0.0000   -6.0000    0.0000 C   0  0  0  0  0  0  0  0  0  0  0  0
    0.0000   -4.5000    0.0000 O   0  0  0  0  0  0  0  0  0  0  0  0
   -1.2990   -6.7500    0.0000 O   0  0  0  0  0  0  0  0  0  0  0  0
  1  2  1  0
  3  1  1  6
  3  4  1  0
  4  5  1  0
  4  6  1  6
  3  7  1  0
  7  8  2  0
  7  9  1  0
 10  9  1  6
 10 11  1  0
 11 12  1  0
 11 13  1  0
 10 14  1  0
 14 15  2  0
 14 16  1  0
 16 17  1  0
 17 18  1  1
 18 19  1  0
 19 20  3  0
 17 21  1  0
 21 22  2  0
 21 23  1  0
M  END
$$$$

     RDKit          2D

 23 22  0  0  0  0  0  0  0  0999 V2000
    2.5981    3.0000    0.0000 N   0  0  0  0  0  0  0  0  0  0  0  0
    1.2990    2.2500    0.0000 C   0  0  0  0  0  0  0  0  0  0  0  0
    1.2990    0.7500    0.0000 C   0  0  0  0  0  0  0  0  0  0  0  0
    0.0000    0.0000    0.0000 C   0  0  0  0  0  0  0  0  0  0  0  0
    2.5981   -0.0000    0.0000 C   0  0  0  0  0  0  0  0  0  0  0  0
    2.5981    4.5000    0.0000 C   0  0  0  0  0  0  0  0  0  0  0  0
    3.8971    5.2500    0.0000 C   0  0  0  0  0  0  0  0  0  0  0  0
    5.1962    4.5000    0.0000 O   0  0  0  0  0  0  0  0  0  0  0  0
    3.8971    6.7500    0.0000 N   0  0  0  0  0  0  0  0  0  0  0  0
    5.1962    7.5000    0.0000 C   0  0  0  0  0  0  0  0  0  0  0  0
    5.1962    9.0000    0.0000 C   0  0  0  0  0  0  0  0  0  0  0  0
    6.4952    9.7500    0.0000 C   0  0  0  0  0  0  0  0  0  0  0  0
    3.8971    9.7500    0.0000 C   0  0  0  0  0  0  0  0  0  0  0  0
    6.4952    6.7500    0.0000 C   0  0  0  0  0  0  0  0  0  0  0  0
    6.4952    5.2500    0.0000 O   0  0  0  0  0  0  0  0  0  0  0  0
    7.7942    7.5000    0.0000 N   0  0  0  0  0  0  0  0  0  0  0  0
    9.0933    6.7500    0.0000 C   0  0  0  0  0  0  0  0  0  0  0  0
   10.3923    7.5000    0.0000 C   0  0  0  0  0  0  0  0  0  0  0  0
   11.6913    6.7500    0.0000 C   0  0  0  0  0  0  0  0  0  0  0  0
   12.9904    6.0000    0.0000 C   0  0  0  0  0  0  0  0  0  0  0  0
    9.0933    5.2500    0.0000 C   0  0  0  0  0  0  0  0  0  0  0  0
    7.7942    4.5000    0.0000 O   0  0  0  0  0  0  0  0  0  0  0  0
   10.3923    4.5000    0.0000 O   0  0  0  0  0  0  0  0  0  0  0  0
  1  2  1  0
  2  3  1  0
  3  4  1  0
  3  5  1  0
  1  6  1  0
  6  7  1  0
  7  8  2  0
  7  9  1  0
 10  9  1  6
 10 11  1  0
 11 12  1  0
 11 13  1  0
 10 14  1  0
 14 15  2  0
 14 16  1  0
 16 17  1  0
 17 18  1  1
 18 19  1  0
 19 20  3  0
 17 21  1  0
 21 22  2  0
 21 23  1  0
M  END
$$$$

     RDKit          2D

 26 25  0  0  0  0  0  0  0  0999 V2000
    3.8971    6.7500    0.0000 N   0  0  0  0  0  0  0  0  0  0  0  0
    3.8971    5.2500    0.0000 C   0  0  0  0  0  0  0  0  0  0  0  0
    2.5981    4.5000    0.0000 C   0  0  0  0  0  0  0  0  0  0  0  0
    2.5981    3.0000    0.0000 C   0  0  0  0  0  0  0  0  0  0  0  0
    1.2990    2.2500    0.0000 O   0  0  0  0  0  0  0  0  0  0  0  0
    1.2990    0.7500    0.0000 C   0  0  0  0  0  0  0  0  0  0  0  0
    0.0000    0.0000    0.0000 C   0  0  0  0  0  0  0  0  0  0  0  0
    2.5981   -0.0000    0.0000 C   0  0  0  0  0  0  0  0  0  0  0  0
    5.1962    7.5000    0.0000 C   0  0  0  0  0  0  0  0  0  0  0  0
    5.1962    9.0000    0.0000 C   0  0  0  0  0  0  0  0  0  0  0  0
    3.8971    9.7500    0.0000 O   0  0  0  0  0  0  0  0  0  0  0  0
    6.4952    9.7500    0.0000 N   0  0  0  0  0  0  0  0  0  0  0  0
    6.4952   11.2500    0.0000 C   0  0  0  0  0  0  0  0  0  0  0  0
    7.7942   12.0000    0.0000 C   0  0  0  0  0  0  0  0  0  0  0  0
    7.7942   13.5000    0.0000 C   0  0  0  0  0  0  0  0  0  0  0  0
    9.0933   11.2500    0.0000 C   0  0  0  0  0  0  0  0  0  0  0  0
    5.1962   12.0000    0.0000 C   0  0  0  0  0  0  0  0  0  0  0  0
    3.8971   11.2500    0.0000 O   0  0  0  0  0  0  0  0  0  0  0  0
    5.1962   13.5000    0.0000 N   0  0  0  0  0  0  0  0  0  0  0  0
    3.8971   14.2500    0.0000 C   0  0  0  0  0  0  0  0  0  0  0  0
    3.8971   15.7500    0.0000 C   0  0  0  0  0  0  0  0  0  0  0  0
    2.5981   16.5000    0.0000 C   0  0  0  0  0  0  0  0  0  0  0  0
    1.2990   17.2500    0.0000 C   0  0  0  0  0  0  0  0  0  0  0  0
    2.5981   13.5000    0.0000 C   0  0  0  0  0  0  0  0  0  0  0  0
    2.5981   12.0000    0.0000 O   0  0  0  0  0  0  0  0  0  0  0  0
    1.2990   14.2500    0.0000 O   0  0  0  0  0  0  0  0  0  0  0  0
  1  2  1  0
  2  3  1  0
  3  4  1  0
  4  5  1  0
  5  6  1  0
  6  7  1  0
  6  8  1  0
  1  9  1  0
  9 10  1  0
 10 11  2  0
 10 12  1  0
 13 12  1  1
 13 14  1  0
 14 15  1  0
 14 16  1  0
 13 17  1  0
 17 18  2  0
 17 19  1  0
 19 20  1  0
 20 21  1  6
 21 22  1  0
 22 23  3  0
 20 24  1  0
 24 25  2  0
 24 26  1  0
M  END
$$$$

     RDKit          2D

 28 28  0  0  0  0  0  0  0  0999 V2000
    6.0000   -2.5981    0.0000 N   0  0  0  0  0  0  0  0  0  0  0  0
    5.2500   -1.2990    0.0000 C   0  0  0  0  0  0  0  0  0  0  0  0
    3.7500   -1.2990    0.0000 C   0  0  0  0  0  0  0  0  0  0  0  0
    3.0000    0.0000    0.0000 O   0  0  0  0  0  0  0  0  0  0  0  0
    1.5000    0.0000    0.0000 C   0  0  0  0  0  0  0  0  0  0  0  0
    0.7500   -1.2990    0.0000 C   0  0  0  0  0  0  0  0  0  0  0  0
   -0.7500   -1.2990    0.0000 C   0  0  0  0  0  0  0  0  0  0  0  0
   -1.5000    0.0000    0.0000 C   0  0  0  0  0  0  0  0  0  0  0  0
   -0.7500    1.2990    0.0000 C   0  0  0  0  0  0  0  0  0  0  0  0
    0.7500    1.2990    0.0000 C   0  0  0  0  0  0  0  0  0  0  0  0
    7.5000   -2.5981    0.0000 C   0  0  0  0  0  0  0  0  0  0  0  0
    8.2500   -3.8971    0.0000 C   0  0  0  0  0  0  0  0  0  0  0  0
    7.5000   -5.1962    0.0000 O   0  0  0  0  0  0  0  0  0  0  0  0
    9.7500   -3.8971    0.0000 N   0  0  0  0  0  0  0  0  0  0  0  0
   10.5000   -5.1962    0.0000 C   0  0  0  0  0  0  0  0  0  0  0  0
   12.0000   -5.1962    0.0000 C   0  0  0  0  0  0  0  0  0  0  0  0
   12.7500   -6.4952    0.0000 C   0  0  0  0  0  0  0  0  0  0  0  0
   12.7500   -3.8971    0.0000 C   0  0  0  0  0  0  0  0  0  0  0  0
    9.7500   -6.4952    0.0000 C   0  0  0  0  0  0  0  0  0  0  0  0
    8.2500   -6.4952    0.0000 O   0  0  0  0  0  0  0  0  0  0  0  0
   10.5000   -7.7942    0.0000 N   0  0  0  0  0  0  0  0  0  0  0  0
    9.7500   -9.0933    0.0000 C   0  0  0  0  0  0  0  0  0  0  0  0
   10.5000  -10.3923    0.0000 C   0  0  0  0  0  0  0  0  0  0  0  0
    9.7500  -11.6913    0.0000 C   0  0  0  0  0  0  0  0  0  0  0  0
    9.0000  -12.9904    0.0000 C   0  0  0  0  0  0  0  0  0  0  0  0
    8.2500   -9.0933    0.0000 C   0  0  0  0  0  0  0  0  0  0  0  0
    7.5000   -7.7942    0.0000 O   0  0  0  0  0  0  0  0  0  0  0  0
    7.5000  -10.3923    0.0000 O   0  0  0  0  0  0  0  0  0  0  0  0
  1  2  1  0
  2  3  1  0
  3  4  1  0
  4  5  1  0
  5  6  2  0
  6  7  1  0
  7  8  2  0
  8  9  1  0
  9 10  2  0
  1 11  1  0
 11 12  1  0
 12 13  2  0
 12 14  1  0
 15 14  1  6
 15 16  1  0
 16 17  1  0
 16 18  1  0
 15 19  1  0
 19 20  2  0
 19 21  1  0
 21 22  1  0
 22 23  1  1
 23 24  1  0
 24 25  3  0
 22 26  1  0
 26 27  2  0
 26 28  1  0
 10  5  1  0
M  END
$$$$

     RDKit          2D

 31 31  0  0  0  0  0  0  0  0999 V2000
    5.2500   -1.2990    0.0000 N   0  0  0  0  0  0  0  0  0  0  0  0
    3.7500   -1.2990    0.0000 C   0  0  0  0  0  0  0  0  0  0  0  0
    3.0000    0.0000    0.0000 C   0  0  0  0  0  0  0  0  0  0  0  0
    1.5000    0.0000    0.0000 C   0  0  0  0  0  0  0  0  0  0  0  0
    0.7500   -1.2990    0.0000 C   0  0  0  0  0  0  0  0  0  0  0  0
   -0.7500   -1.2990    0.0000 C   0  0  0  0  0  0  0  0  0  0  0  0
   -1.5000    0.0000    0.0000 C   0  0  0  0  0  0  0  0  0  0  0  0
   -0.7500    1.2990    0.0000 C   0  0  0  0  0  0  0  0  0  0  0  0
   -1.5000    2.5981    0.0000 O   0  0  0  0  0  0  0  0  0  0  0  0
   -0.7500    3.8971    0.0000 C   0  0  0  0  0  0  0  0  0  0  0  0
    0.7500    1.2990    0.0000 C   0  0  0  0  0  0  0  0  0  0  0  0
   -3.0000    0.0000    0.0000 O   0  0  0  0  0  0  0  0  0  0  0  0
   -3.7500    1.2990    0.0000 C   0  0  0  0  0  0  0  0  0  0  0  0
    6.0000   -2.5981    0.0000 C   0  0  0  0  0  0  0  0  0  0  0  0
    7.5000   -2.5981    0.0000 C   0  0  0  0  0  0  0  0  0  0  0  0
    8.2500   -1.2990    0.0000 O   0  0  0  0  0  0  0  0  0  0  0  0
    8.2500   -3.8971    0.0000 N   0  0  0  0  0  0  0  0  0  0  0  0
    9.7500   -3.8971    0.0000 C   0  0  0  0  0  0  0  0  0  0  0  0
   10.5000   -5.1962    0.0000 C   0  0  0  0  0  0  0  0  0  0  0  0
   12.0000   -5.1962    0.0000 C   0  0  0  0  0  0  0  0  0  0  0  0
    9.7500   -6.4952    0.0000 C   0  0  0  0  0  0  0  0  0  0  0  0
   10.5000   -2.5981    0.0000 C   0  0  0  0  0  0  0  0  0  0  0  0
    9.7500   -1.2990    0.0000 O   0  0  0  0  0  0  0  0  0  0  0  0
   12.0000   -2.5981    0.0000 N   0  0  0  0  0  0  0  0  0  0  0  0
   12.7500   -1.2990    0.0000 C   0  0  0  0  0  0  0  0  0  0  0  0
   14.2500   -1.2990    0.0000 C   0  0  0  0  0  0  0  0  0  0  0  0
   15.0000    0.0000    0.0000 C   0  0  0  0  0  0  0  0  0  0  0  0
   15.7500    1.2990    0.0000 C   0  0  0  0  0  0  0  0  0  0  0  0
   12.0000    0.0000    0.0000 C   0  0  0  0  0  0  0  0  0  0  0  0
   10.5000    0.0000    0.0000 O   0  0  0  0  0  0  0  0  0  0  0  0
   12.7500    1.2990    0.0000 O   0  0  0  0  0  0  0  0  0  0  0  0
  1  2  1  0
  2  3  1  0
  3  4  1  0
  4  5  2  0
  5  6  1  0
  6  7  2  0
  7  8  1  0
  8  9  1  0
  9 10  1  0
  8 11  2  0
  7 12  1  0
 12 13  1  0
  1 14  1  0
 14 15  1  0
 15 16  2  0
 15 17  1  0
 18 17  1  1
 18 19  1  0
 19 20  1  0
 19 21  1  0
 18 22  1  0
 22 23  2  0
 22 24  1  0
 24 25  1  0
 25 26  1  6
 26 27  1  0
 27 28  3  0
 25 29  1  0
 29 30  2  0
 29 31  1  0
 11  4  1  0
M  END
$$$$

     RDKit          2D

 38 38  0  0  0  0  0  0  0  0999 V2000
    1.2760    5.1962    0.0000 N   0  0  0  0  0  0  0  0  0  0  0  0
    2.7760    5.1962    0.0000 C   0  0  0  0  0  0  0  0  0  0  0  0
    3.5260    6.4952    0.0000 C   0  0  0  0  0  0  0  0  0  0  0  0
    2.7760    7.7942    0.0000 C   0  0  0  0  0  0  0  0  0  0  0  0
    3.5260    9.0933    0.0000 C   0  0  0  0  0  0  0  0  0  0  0  0
    1.2760    7.7942    0.0000 C   0  0  0  0  0  0  0  0  0  0  0  0
    3.5260    3.8971    0.0000 C   0  0  0  0  0  0  0  0  0  0  0  0
    5.0260    3.8971    0.0000 O   0  0  0  0  0  0  0  0  0  0  0  0
    2.7760    2.5981    0.0000 N   0  0  0  0  0  0  0  0  0  0  0  0
    3.5260    1.2990    0.0000 C   0  0  0  0  0  0  0  0  0  0  0  0
    5.0260    1.2990    0.0000 C   0  0  0  0  0  0  0  0  0  0  0  0
    5.7760    0.0000    0.0000 C   0  0  0  0  0  0  0  0  0  0  0  0
    5.0260   -1.2990    0.0000 C   0  0  0  0  0  0  0  0  0  0  0  0
    7.2760    0.0000    0.0000 C   0  0  0  0  0  0  0  0  0  0  0  0
    2.7760    0.0000    0.0000 C   0  0  0  0  0  0  0  0  0  0  0  0
    3.5260   -1.2990    0.0000 O   0  0  0  0  0  0  0  0  0  0  0  0
    1.2760    0.0000    0.0000 N   0  0  0  0  0  0  0  0  0  0  0  0
    0.3943    1.2135    0.0000 C   0  0  0  0  0  0  0  0  0  0  0  0
   -1.0323    0.7500    0.0000 C   0  0  0  0  0  0  0  0  0  0  0  0
   -1.0323   -0.7500    0.0000 C   0  0  0  0  0  0  0  0  0  0  0  0
    0.3943   -1.2135    0.0000 C   0  0  0  0  0  0  0  0  0  0  0  0
    0.8578   -2.6401    0.0000 C   0  0  0  0  0  0  0  0  0  0  0  0
    2.3250   -2.9520    0.0000 O   0  0  0  0  0  0  0  0  0  0  0  0
   -0.1459   -3.7548    0.0000 N   0  0  0  0  0  0  0  0  0  0  0  0
    0.3177   -5.1814    0.0000 C   0  0  0  0  0  0  0  0  0  0  0  0
   -0.6860   -6.2961    0.0000 C   0  0  0  0  0  0  0  0  0  0  0  0
   -0.2225   -7.7227    0.0000 C   0  0  0  0  0  0  0  0  0  0  0  0
   -2.1533   -5.9843    0.0000 C   0  0  0  0  0  0  0  0  0  0  0  0
    1.7849   -5.4933    0.0000 C   0  0  0  0  0  0  0  0  0  0  0  0
    2.7886   -4.3786    0.0000 O   0  0  0  0  0  0  0  0  0  0  0  0
    2.2484   -6.9199    0.0000 N   0  0  0  0  0  0  0  0  0  0  0  0
    3.7156   -7.2317    0.0000 C   0  0  0  0  0  0  0  0  0  0  0  0
    4.1791   -8.6583    0.0000 C   0  0  0  0  0  0  0  0  0  0  0  0
    5.6464   -8.9702    0.0000 C   0  0  0  0  0  0  0  0  0  0  0  0
    7.1136   -9.2821    0.0000 C   0  0  0  0  0  0  0  0  0  0  0  0
    4.7193   -6.1170    0.0000 C   0  0  0  0  0  0  0  0  0  0  0  0
    4.2558   -4.6904    0.0000 O   0  0  0  0  0  0  0  0  0  0  0  0
    6.1865   -6.4289    0.0000 O   0  0  0  0  0  0  0  0  0  0  0  0
  2  1  1  1
  2  3  1  0
  3  4  1  0
  4  5  1  0
  4  6  1  0
  2  7  1  0
  7  8  2  0
  7  9  1  0
  9 10  1  0
 10 11  1  1
 11 12  1  0
 12 13  1  0
 12 14  1  0
 10 15  1  0
 15 16  2  0
 15 17  1  0
 17 18  1  0
 18 19  1  0
 19 20  1  0
 20 21  1  0
 21 22  1  6
 22 23  2  0
 22 24  1  0
 25 24  1  1
 25 26  1  0
 26 27  1  0
 26 28  1  0
 25 29  1  0
 29 30  2  0
 29 31  1  0
 31 32  1  0
 32 33  1  6
 33 34  1  0
 34 35  3  0
 32 36  1  0
 36 37  2  0
 36 38  1  0
 21 17  1  0
M  END
$$$$

     RDKit          2D

 38 38  0  0  0  0  0  0  0  0999 V2000
    1.2760    5.1962    0.0000 N   0  0  0  0  0  0  0  0  0  0  0  0
    2.7760    5.1962    0.0000 C   0  0  0  0  0  0  0  0  0  0  0  0
    3.5260    6.4952    0.0000 C   0  0  0  0  0  0  0  0  0  0  0  0
    2.7760    7.7942    0.0000 C   0  0  0  0  0  0  0  0  0  0  0  0
    3.5260    9.0933    0.0000 C   0  0  0  0  0  0  0  0  0  0  0  0
    1.2760    7.7942    0.0000 C   0  0  0  0  0  0  0  0  0  0  0  0
    3.5260    3.8971    0.0000 C   0  0  0  0  0  0  0  0  0  0  0  0
    5.0260    3.8971    0.0000 O   0  0  0  0  0  0  0  0  0  0  0  0
    2.7760    2.5981    0.0000 N   0  0  0  0  0  0  0  0  0  0  0  0
    3.5260    1.2990    0.0000 C   0  0  0  0  0  0  0  0  0  0  0  0
    5.0260    1.2990    0.0000 C   0  0  0  0  0  0  0  0  0  0  0  0
    5.7760    0.0000    0.0000 C   0  0  0  0  0  0  0  0  0  0  0  0
    5.0260   -1.2990    0.0000 C   0  0  0  0  0  0  0  0  0  0  0  0
    7.2760    0.0000    0.0000 C   0  0  0  0  0  0  0  0  0  0  0  0
    2.7760    0.0000    0.0000 C   0  0  0  0  0  0  0  0  0  0  0  0
    3.5260   -1.2990    0.0000 O   0  0  0  0  0  0  0  0  0  0  0  0
    1.2760    0.0000    0.0000 N   0  0  0  0  0  0  0  0  0  0  0  0
    0.3943    1.2135    0.0000 C   0  0  0  0  0  0  0  0  0  0  0  0
   -1.0323    0.7500    0.0000 C   0  0  0  0  0  0  0  0  0  0  0  0
   -1.0323   -0.7500    0.0000 C   0  0  0  0  0  0  0  0  0  0  0  0
    0.3943   -1.2135    0.0000 C   0  0  0  0  0  0  0  0  0  0  0  0
    0.8578   -2.6401    0.0000 C   0  0  0  0  0  0  0  0  0  0  0  0
    2.3250   -2.9520    0.0000 O   0  0  0  0  0  0  0  0  0  0  0  0
   -0.1459   -3.7548    0.0000 N   0  0  0  0  0  0  0  0  0  0  0  0
    0.3177   -5.1814    0.0000 C   0  0  0  0  0  0  0  0  0  0  0  0
   -0.6860   -6.2961    0.0000 C   0  0  0  0  0  0  0  0  0  0  0  0
   -0.2225   -7.7227    0.0000 C   0  0  0  0  0  0  0  0  0  0  0  0
   -2.1533   -5.9843    0.0000 C   0  0  0  0  0  0  0  0  0  0  0  0
    1.7849   -5.4933    0.0000 C   0  0  0  0  0  0  0  0  0  0  0  0
    2.7886   -4.3786    0.0000 O   0  0  0  0  0  0  0  0  0  0  0  0
    2.2484   -6.9199    0.0000 N   0  0  0  0  0  0  0  0  0  0  0  0
    3.7156   -7.2317    0.0000 C   0  0  0  0  0  0  0  0  0  0  0  0
    4.1791   -8.6583    0.0000 C   0  0  0  0  0  0  0  0  0  0  0  0
    5.6464   -8.9702    0.0000 C   0  0  0  0  0  0  0  0  0  0  0  0
    7.1136   -9.2821    0.0000 C   0  0  0  0  0  0  0  0  0  0  0  0
    4.7193   -6.1170    0.0000 C   0  0  0  0  0  0  0  0  0  0  0  0
    4.2558   -4.6904    0.0000 O   0  0  0  0  0  0  0  0  0  0  0  0
    6.1865   -6.4289    0.0000 O   0  0  0  0  0  0  0  0  0  0  0  0
  2  1  1  6
  2  3  1  0
  3  4  1  0
  4  5  1  0
  4  6  1  0
  2  7  1  0
  7  8  2  0
  7  9  1  0
  9 10  1  0
 10 11  1  1
 11 12  1  0
 12 13  1  0
 12 14  1  0
 10 15  1  0
 15 16  2  0
 15 17  1  0
 17 18  1  0
 18 19  1  0
 19 20  1  0
 20 21  1  0
 21 22  1  6
 22 23  2  0
 22 24  1  0
 25 24  1  1
 25 26  1  0
 26 27  1  0
 26 28  1  0
 25 29  1  0
 29 30  2  0
 29 31  1  0
 31 32  1  0
 32 33  1  6
 33 34  1  0
 34 35  3  0
 32 36  1  0
 36 37  2  0
 36 38  1  0
 21 17  1  0
M  END
$$$$

     RDKit          2D

 39 39  0  0  0  0  0  0  0  0999 V2000
    1.2760    5.1962    0.0000 N   0  0  0  0  0  0  0  0  0  0  0  0
    0.5260    6.4952    0.0000 C   0  0  0  0  0  0  0  0  0  0  0  0
    2.7760    5.1962    0.0000 C   0  0  0  0  0  0  0  0  0  0  0  0
    3.5260    6.4952    0.0000 C   0  0  0  0  0  0  0  0  0  0  0  0
    2.7760    7.7942    0.0000 C   0  0  0  0  0  0  0  0  0  0  0  0
    3.5260    9.0933    0.0000 C   0  0  0  0  0  0  0  0  0  0  0  0
    1.2760    7.7942    0.0000 C   0  0  0  0  0  0  0  0  0  0  0  0
    3.5260    3.8971    0.0000 C   0  0  0  0  0  0  0  0  0  0  0  0
    5.0260    3.8971    0.0000 O   0  0  0  0  0  0  0  0  0  0  0  0
    2.7760    2.5981    0.0000 N   0  0  0  0  0  0  0  0  0  0  0  0
    3.5260    1.2990    0.0000 C   0  0  0  0  0  0  0  0  0  0  0  0
    5.0260    1.2990    0.0000 C   0  0  0  0  0  0  0  0  0  0  0  0
    5.7760    0.0000    0.0000 C   0  0  0  0  0  0  0  0  0  0  0  0
    7.2760    0.0000    0.0000 C   0  0  0  0  0  0  0  0  0  0  0  0
    5.0260   -1.2990    0.0000 C   0  0  0  0  0  0  0  0  0  0  0  0
    2.7760    0.0000    0.0000 C   0  0  0  0  0  0  0  0  0  0  0  0
    3.5260   -1.2990    0.0000 O   0  0  0  0  0  0  0  0  0  0  0  0
    1.2760    0.0000    0.0000 N   0  0  0  0  0  0  0  0  0  0  0  0
    0.3943    1.2135    0.0000 C   0  0  0  0  0  0  0  0  0  0  0  0
   -1.0323    0.7500    0.0000 C   0  0  0  0  0  0  0  0  0  0  0  0
   -1.0323   -0.7500    0.0000 C   0  0  0  0  0  0  0  0  0  0  0  0
    0.3943   -1.2135    0.0000 C   0  0  0  0  0  0  0  0  0  0  0  0
    0.8578   -2.6401    0.0000 C   0  0  0  0  0  0  0  0  0  0  0  0
    2.3250   -2.9520    0.0000 O   0  0  0  0  0  0  0  0  0  0  0  0
   -0.1459   -3.7548    0.0000 N   0  0  0  0  0  0  0  0  0  0  0  0
    0.3177   -5.1814    0.0000 C   0  0  0  0  0  0  0  0  0  0  0  0
   -0.6860   -6.2961    0.0000 C   0  0  0  0  0  0  0  0  0  0  0  0
   -0.2225   -7.7227    0.0000 C   0  0  0  0  0  0  0  0  0  0  0  0
   -2.1533   -5.9843    0.0000 C   0  0  0  0  0  0  0  0  0  0  0  0
    1.7849   -5.4933    0.0000 C   0  0  0  0  0  0  0  0  0  0  0  0
    2.7886   -4.3786    0.0000 O   0  0  0  0  0  0  0  0  0  0  0  0
    2.2484   -6.9199    0.0000 N   0  0  0  0  0  0  0  0  0  0  0  0
    3.7156   -7.2317    0.0000 C   0  0  0  0  0  0  0  0  0  0  0  0
    4.1791   -8.6583    0.0000 C   0  0  0  0  0  0  0  0  0  0  0  0
    5.6464   -8.9702    0.0000 C   0  0  0  0  0  0  0  0  0  0  0  0
    7.1136   -9.2821    0.0000 C   0  0  0  0  0  0  0  0  0  0  0  0
    4.7193   -6.1170    0.0000 C   0  0  0  0  0  0  0  0  0  0  0  0
    4.2558   -4.6904    0.0000 O   0  0  0  0  0  0  0  0  0  0  0  0
    6.1865   -6.4289    0.0000 O   0  0  0  0  0  0  0  0  0  0  0  0
  1  2  1  0
  1  3  1  0
  3  4  1  1
  4  5  1  0
  5  6  1  0
  5  7  1  0
  3  8  1  0
  8  9  2  0
  8 10  1  0
 10 11  1  0
 11 12  1  1
 12 13  1  0
 13 14  1  0
 13 15  1  0
 11 16  1  0
 16 17  2  0
 16 18  1  0
 18 19  1  0
 19 20  1  0
 20 21  1  0
 21 22  1  0
 22 23  1  6
 23 24  2  0
 23 25  1  0
 26 25  1  1
 26 27  1  0
 27 28  1  0
 27 29  1  0
 26 30  1  0
 30 31  2  0
 30 32  1  0
 32 33  1  0
 33 34  1  6
 34 35  1  0
 35 36  3  0
 33 37  1  0
 37 38  2  0
 37 39  1  0
 22 18  1  0
M  END
$$$$

     RDKit          2D

 39 39  0  0  0  0  0  0  0  0999 V2000
    1.2760    5.1962    0.0000 N   0  0  0  0  0  0  0  0  0  0  0  0
    0.5260    6.4952    0.0000 C   0  0  0  0  0  0  0  0  0  0  0  0
    2.7760    5.1962    0.0000 C   0  0  0  0  0  0  0  0  0  0  0  0
    3.5260    6.4952    0.0000 C   0  0  0  0  0  0  0  0  0  0  0  0
    2.7760    7.7942    0.0000 C   0  0  0  0  0  0  0  0  0  0  0  0
    3.5260    9.0933    0.0000 C   0  0  0  0  0  0  0  0  0  0  0  0
    1.2760    7.7942    0.0000 C   0  0  0  0  0  0  0  0  0  0  0  0
    3.5260    3.8971    0.0000 C   0  0  0  0  0  0  0  0  0  0  0  0
    5.0260    3.8971    0.0000 O   0  0  0  0  0  0  0  0  0  0  0  0
    2.7760    2.5981    0.0000 N   0  0  0  0  0  0  0  0  0  0  0  0
    3.5260    1.2990    0.0000 C   0  0  0  0  0  0  0  0  0  0  0  0
    5.0260    1.2990    0.0000 C   0  0  0  0  0  0  0  0  0  0  0  0
    5.7760    0.0000    0.0000 C   0  0  0  0  0  0  0  0  0  0  0  0
    7.2760    0.0000    0.0000 C   0  0  0  0  0  0  0  0  0  0  0  0
    5.0260   -1.2990    0.0000 C   0  0  0  0  0  0  0  0  0  0  0  0
    2.7760    0.0000    0.0000 C   0  0  0  0  0  0  0  0  0  0  0  0
    3.5260   -1.2990    0.0000 O   0  0  0  0  0  0  0  0  0  0  0  0
    1.2760    0.0000    0.0000 N   0  0  0  0  0  0  0  0  0  0  0  0
    0.3943    1.2135    0.0000 C   0  0  0  0  0  0  0  0  0  0  0  0
   -1.0323    0.7500    0.0000 C   0  0  0  0  0  0  0  0  0  0  0  0
   -1.0323   -0.7500    0.0000 C   0  0  0  0  0  0  0  0  0  0  0  0
    0.3943   -1.2135    0.0000 C   0  0  0  0  0  0  0  0  0  0  0  0
    0.8578   -2.6401    0.0000 C   0  0  0  0  0  0  0  0  0  0  0  0
    2.3250   -2.9520    0.0000 O   0  0  0  0  0  0  0  0  0  0  0  0
   -0.1459   -3.7548    0.0000 N   0  0  0  0  0  0  0  0  0  0  0  0
    0.3177   -5.1814    0.0000 C   0  0  0  0  0  0  0  0  0  0  0  0
   -0.6860   -6.2961    0.0000 C   0  0  0  0  0  0  0  0  0  0  0  0
   -0.2225   -7.7227    0.0000 C   0  0  0  0  0  0  0  0  0  0  0  0
   -2.1533   -5.9843    0.0000 C   0  0  0  0  0  0  0  0  0  0  0  0
    1.7849   -5.4933    0.0000 C   0  0  0  0  0  0  0  0  0  0  0  0
    2.7886   -4.3786    0.0000 O   0  0  0  0  0  0  0  0  0  0  0  0
    2.2484   -6.9199    0.0000 N   0  0  0  0  0  0  0  0  0  0  0  0
    3.7156   -7.2317    0.0000 C   0  0  0  0  0  0  0  0  0  0  0  0
    4.1791   -8.6583    0.0000 C   0  0  0  0  0  0  0  0  0  0  0  0
    5.6464   -8.9702    0.0000 C   0  0  0  0  0  0  0  0  0  0  0  0
    7.1136   -9.2821    0.0000 C   0  0  0  0  0  0  0  0  0  0  0  0
    4.7193   -6.1170    0.0000 C   0  0  0  0  0  0  0  0  0  0  0  0
    4.2558   -4.6904    0.0000 O   0  0  0  0  0  0  0  0  0  0  0  0
    6.1865   -6.4289    0.0000 O   0  0  0  0  0  0  0  0  0  0  0  0
  1  2  1  0
  1  3  1  0
  3  4  1  6
  4  5  1  0
  5  6  1  0
  5  7  1  0
  3  8  1  0
  8  9  2  0
  8 10  1  0
 10 11  1  0
 11 12  1  1
 12 13  1  0
 13 14  1  0
 13 15  1  0
 11 16  1  0
 16 17  2  0
 16 18  1  0
 18 19  1  0
 19 20  1  0
 20 21  1  0
 21 22  1  0
 22 23  1  6
 23 24  2  0
 23 25  1  0
 26 25  1  1
 26 27  1  0
 27 28  1  0
 27 29  1  0
 26 30  1  0
 30 31  2  0
 30 32  1  0
 32 33  1  0
 33 34  1  6
 34 35  1  0
 35 36  3  0
 33 37  1  0
 37 38  2  0
 37 39  1  0
 22 18  1  0
M  END
$$$$

     RDKit          2D

 38 38  0  0  0  0  0  0  0  0999 V2000
    1.2760    5.1962    0.0000 N   0  0  0  0  0  0  0  0  0  0  0  0
    2.7760    5.1962    0.0000 C   0  0  0  0  0  0  0  0  0  0  0  0
    3.5260    6.4952    0.0000 C   0  0  0  0  0  0  0  0  0  0  0  0
    2.7760    7.7942    0.0000 C   0  0  0  0  0  0  0  0  0  0  0  0
    3.5260    9.0933    0.0000 C   0  0  0  0  0  0  0  0  0  0  0  0
    1.2760    7.7942    0.0000 C   0  0  0  0  0  0  0  0  0  0  0  0
    3.5260    3.8971    0.0000 C   0  0  0  0  0  0  0  0  0  0  0  0
    5.0260    3.8971    0.0000 O   0  0  0  0  0  0  0  0  0  0  0  0
    2.7760    2.5981    0.0000 N   0  0  0  0  0  0  0  0  0  0  0  0
    3.5260    1.2990    0.0000 C   0  0  0  0  0  0  0  0  0  0  0  0
    5.0260    1.2990    0.0000 C   0  0  0  0  0  0  0  0  0  0  0  0
    5.7760    0.0000    0.0000 C   0  0  0  0  0  0  0  0  0  0  0  0
    5.0260   -1.2990    0.0000 C   0  0  0  0  0  0  0  0  0  0  0  0
    7.2760    0.0000    0.0000 C   0  0  0  0  0  0  0  0  0  0  0  0
    2.7760    0.0000    0.0000 C   0  0  0  0  0  0  0  0  0  0  0  0
    3.5260   -1.2990    0.0000 O   0  0  0  0  0  0  0  0  0  0  0  0
    1.2760    0.0000    0.0000 N   0  0  0  0  0  0  0  0  0  0  0  0
    0.3943    1.2135    0.0000 C   0  0  0  0  0  0  0  0  0  0  0  0
   -1.0323    0.7500    0.0000 C   0  0  0  0  0  0  0  0  0  0  0  0
   -1.0323   -0.7500    0.0000 C   0  0  0  0  0  0  0  0  0  0  0  0
    0.3943   -1.2135    0.0000 C   0  0  0  0  0  0  0  0  0  0  0  0
    0.8578   -2.6401    0.0000 C   0  0  0  0  0  0  0  0  0  0  0  0
    2.3250   -2.9520    0.0000 O   0  0  0  0  0  0  0  0  0  0  0  0
   -0.1459   -3.7548    0.0000 N   0  0  0  0  0  0  0  0  0  0  0  0
    0.3177   -5.1814    0.0000 C   0  0  0  0  0  0  0  0  0  0  0  0
   -0.6860   -6.2961    0.0000 C   0  0  0  0  0  0  0  0  0  0  0  0
   -0.2225   -7.7227    0.0000 C   0  0  0  0  0  0  0  0  0  0  0  0
   -2.1533   -5.9843    0.0000 C   0  0  0  0  0  0  0  0  0  0  0  0
    1.7849   -5.4933    0.0000 C   0  0  0  0  0  0  0  0  0  0  0  0
    2.7886   -4.3786    0.0000 O   0  0  0  0  0  0  0  0  0  0  0  0
    2.2484   -6.9199    0.0000 N   0  0  0  0  0  0  0  0  0  0  0  0
    3.7156   -7.2317    0.0000 C   0  0  0  0  0  0  0  0  0  0  0  0
    4.1791   -8.6583    0.0000 C   0  0  0  0  0  0  0  0  0  0  0  0
    5.6464   -8.9702    0.0000 C   0  0  0  0  0  0  0  0  0  0  0  0
    7.1136   -9.2821    0.0000 C   0  0  0  0  0  0  0  0  0  0  0  0
    4.7193   -6.1170    0.0000 C   0  0  0  0  0  0  0  0  0  0  0  0
    4.2558   -4.6904    0.0000 O   0  0  0  0  0  0  0  0  0  0  0  0
    6.1865   -6.4289    0.0000 O   0  0  0  0  0  0  0  0  0  0  0  0
  2  1  1  1
  2  3  1  0
  3  4  1  0
  4  5  1  0
  4  6  1  0
  2  7  1  0
  7  8  2  0
  7  9  1  0
  9 10  1  0
 10 11  1  6
 11 12  1  0
 12 13  1  0
 12 14  1  0
 10 15  1  0
 15 16  2  0
 15 17  1  0
 17 18  1  0
 18 19  1  0
 19 20  1  0
 20 21  1  0
 21 22  1  6
 22 23  2  0
 22 24  1  0
 25 24  1  1
 25 26  1  0
 26 27  1  0
 26 28  1  0
 25 29  1  0
 29 30  2  0
 29 31  1  0
 31 32  1  0
 32 33  1  6
 33 34  1  0
 34 35  3  0
 32 36  1  0
 36 37  2  0
 36 38  1  0
 21 17  1  0
M  END
$$$$

     RDKit          2D

 38 38  0  0  0  0  0  0  0  0999 V2000
    1.2760    5.1962    0.0000 N   0  0  0  0  0  0  0  0  0  0  0  0
    2.7760    5.1962    0.0000 C   0  0  0  0  0  0  0  0  0  0  0  0
    3.5260    6.4952    0.0000 C   0  0  0  0  0  0  0  0  0  0  0  0
    2.7760    7.7942    0.0000 C   0  0  0  0  0  0  0  0  0  0  0  0
    3.5260    9.0933    0.0000 C   0  0  0  0  0  0  0  0  0  0  0  0
    1.2760    7.7942    0.0000 C   0  0  0  0  0  0  0  0  0  0  0  0
    3.5260    3.8971    0.0000 C   0  0  0  0  0  0  0  0  0  0  0  0
    5.0260    3.8971    0.0000 O   0  0  0  0  0  0  0  0  0  0  0  0
    2.7760    2.5981    0.0000 N   0  0  0  0  0  0  0  0  0  0  0  0
    3.5260    1.2990    0.0000 C   0  0  0  0  0  0  0  0  0  0  0  0
    5.0260    1.2990    0.0000 C   0  0  0  0  0  0  0  0  0  0  0  0
    5.7760    0.0000    0.0000 C   0  0  0  0  0  0  0  0  0  0  0  0
    5.0260   -1.2990    0.0000 C   0  0  0  0  0  0  0  0  0  0  0  0
    7.2760    0.0000    0.0000 C   0  0  0  0  0  0  0  0  0  0  0  0
    2.7760    0.0000    0.0000 C   0  0  0  0  0  0  0  0  0  0  0  0
    3.5260   -1.2990    0.0000 O   0  0  0  0  0  0  0  0  0  0  0  0
    1.2760    0.0000    0.0000 N   0  0  0  0  0  0  0  0  0  0  0  0
    0.3943    1.2135    0.0000 C   0  0  0  0  0  0  0  0  0  0  0  0
   -1.0323    0.7500    0.0000 C   0  0  0  0  0  0  0  0  0  0  0  0
   -1.0323   -0.7500    0.0000 C   0  0  0  0  0  0  0  0  0  0  0  0
    0.3943   -1.2135    0.0000 C   0  0  0  0  0  0  0  0  0  0  0  0
    0.8578   -2.6401    0.0000 C   0  0  0  0  0  0  0  0  0  0  0  0
    2.3250   -2.9520    0.0000 O   0  0  0  0  0  0  0  0  0  0  0  0
   -0.1459   -3.7548    0.0000 N   0  0  0  0  0  0  0  0  0  0  0  0
    0.3177   -5.1814    0.0000 C   0  0  0  0  0  0  0  0  0  0  0  0
   -0.6860   -6.2961    0.0000 C   0  0  0  0  0  0  0  0  0  0  0  0
   -0.2225   -7.7227    0.0000 C   0  0  0  0  0  0  0  0  0  0  0  0
   -2.1533   -5.9843    0.0000 C   0  0  0  0  0  0  0  0  0  0  0  0
    1.7849   -5.4933    0.0000 C   0  0  0  0  0  0  0  0  0  0  0  0
    2.7886   -4.3786    0.0000 O   0  0  0  0  0  0  0  0  0  0  0  0
    2.2484   -6.9199    0.0000 N   0  0  0  0  0  0  0  0  0  0  0  0
    3.7156   -7.2317    0.0000 C   0  0  0  0  0  0  0  0  0  0  0  0
    4.1791   -8.6583    0.0000 C   0  0  0  0  0  0  0  0  0  0  0  0
    5.6464   -8.9702    0.0000 C   0  0  0  0  0  0  0  0  0  0  0  0
    7.1136   -9.2821    0.0000 C   0  0  0  0  0  0  0  0  0  0  0  0
    4.7193   -6.1170    0.0000 C   0  0  0  0  0  0  0  0  0  0  0  0
    4.2558   -4.6904    0.0000 O   0  0  0  0  0  0  0  0  0  0  0  0
    6.1865   -6.4289    0.0000 O   0  0  0  0  0  0  0  0  0  0  0  0
  2  1  1  6
  2  3  1  0
  3  4  1  0
  4  5  1  0
  4  6  1  0
  2  7  1  0
  7  8  2  0
  7  9  1  0
  9 10  1  0
 10 11  1  6
 11 12  1  0
 12 13  1  0
 12 14  1  0
 10 15  1  0
 15 16  2  0
 15 17  1  0
 17 18  1  0
 18 19  1  0
 19 20  1  0
 20 21  1  0
 21 22  1  6
 22 23  2  0
 22 24  1  0
 25 24  1  1
 25 26  1  0
 26 27  1  0
 26 28  1  0
 25 29  1  0
 29 30  2  0
 29 31  1  0
 31 32  1  0
 32 33  1  6
 33 34  1  0
 34 35  3  0
 32 36  1  0
 36 37  2  0
 36 38  1  0
 21 17  1  0
M  END
$$$$

     RDKit          2D

 39 39  0  0  0  0  0  0  0  0999 V2000
    1.2760    5.1962    0.0000 N   0  0  0  0  0  0  0  0  0  0  0  0
    0.5260    6.4952    0.0000 C   0  0  0  0  0  0  0  0  0  0  0  0
    2.7760    5.1962    0.0000 C   0  0  0  0  0  0  0  0  0  0  0  0
    3.5260    6.4952    0.0000 C   0  0  0  0  0  0  0  0  0  0  0  0
    2.7760    7.7942    0.0000 C   0  0  0  0  0  0  0  0  0  0  0  0
    3.5260    9.0933    0.0000 C   0  0  0  0  0  0  0  0  0  0  0  0
    1.2760    7.7942    0.0000 C   0  0  0  0  0  0  0  0  0  0  0  0
    3.5260    3.8971    0.0000 C   0  0  0  0  0  0  0  0  0  0  0  0
    5.0260    3.8971    0.0000 O   0  0  0  0  0  0  0  0  0  0  0  0
    2.7760    2.5981    0.0000 N   0  0  0  0  0  0  0  0  0  0  0  0
    3.5260    1.2990    0.0000 C   0  0  0  0  0  0  0  0  0  0  0  0
    5.0260    1.2990    0.0000 C   0  0  0  0  0  0  0  0  0  0  0  0
    5.7760    0.0000    0.0000 C   0  0  0  0  0  0  0  0  0  0  0  0
    7.2760    0.0000    0.0000 C   0  0  0  0  0  0  0  0  0  0  0  0
    5.0260   -1.2990    0.0000 C   0  0  0  0  0  0  0  0  0  0  0  0
    2.7760    0.0000    0.0000 C   0  0  0  0  0  0  0  0  0  0  0  0
    3.5260   -1.2990    0.0000 O   0  0  0  0  0  0  0  0  0  0  0  0
    1.2760    0.0000    0.0000 N   0  0  0  0  0  0  0  0  0  0  0  0
    0.3943    1.2135    0.0000 C   0  0  0  0  0  0  0  0  0  0  0  0
   -1.0323    0.7500    0.0000 C   0  0  0  0  0  0  0  0  0  0  0  0
   -1.0323   -0.7500    0.0000 C   0  0  0  0  0  0  0  0  0  0  0  0
    0.3943   -1.2135    0.0000 C   0  0  0  0  0  0  0  0  0  0  0  0
    0.8578   -2.6401    0.0000 C   0  0  0  0  0  0  0  0  0  0  0  0
    2.3250   -2.9520    0.0000 O   0  0  0  0  0  0  0  0  0  0  0  0
   -0.1459   -3.7548    0.0000 N   0  0  0  0  0  0  0  0  0  0  0  0
    0.3177   -5.1814    0.0000 C   0  0  0  0  0  0  0  0  0  0  0  0
   -0.6860   -6.2961    0.0000 C   0  0  0  0  0  0  0  0  0  0  0  0
   -0.2225   -7.7227    0.0000 C   0  0  0  0  0  0  0  0  0  0  0  0
   -2.1533   -5.9843    0.0000 C   0  0  0  0  0  0  0  0  0  0  0  0
    1.7849   -5.4933    0.0000 C   0  0  0  0  0  0  0  0  0  0  0  0
    2.7886   -4.3786    0.0000 O   0  0  0  0  0  0  0  0  0  0  0  0
    2.2484   -6.9199    0.0000 N   0  0  0  0  0  0  0  0  0  0  0  0
    3.7156   -7.2317    0.0000 C   0  0  0  0  0  0  0  0  0  0  0  0
    4.1791   -8.6583    0.0000 C   0  0  0  0  0  0  0  0  0  0  0  0
    5.6464   -8.9702    0.0000 C   0  0  0  0  0  0  0  0  0  0  0  0
    7.1136   -9.2821    0.0000 C   0  0  0  0  0  0  0  0  0  0  0  0
    4.7193   -6.1170    0.0000 C   0  0  0  0  0  0  0  0  0  0  0  0
    4.2558   -4.6904    0.0000 O   0  0  0  0  0  0  0  0  0  0  0  0
    6.1865   -6.4289    0.0000 O   0  0  0  0  0  0  0  0  0  0  0  0
  1  2  1  0
  1  3  1  0
  3  4  1  1
  4  5  1  0
  5  6  1  0
  5  7  1  0
  3  8  1  0
  8  9  2  0
  8 10  1  0
 10 11  1  0
 11 12  1  6
 12 13  1  0
 13 14  1  0
 13 15  1  0
 11 16  1  0
 16 17  2  0
 16 18  1  0
 18 19  1  0
 19 20  1  0
 20 21  1  0
 21 22  1  0
 22 23  1  6
 23 24  2  0
 23 25  1  0
 26 25  1  1
 26 27  1  0
 27 28  1  0
 27 29  1  0
 26 30  1  0
 30 31  2  0
 30 32  1  0
 32 33  1  0
 33 34  1  6
 34 35  1  0
 35 36  3  0
 33 37  1  0
 37 38  2  0
 37 39  1  0
 22 18  1  0
M  END
$$$$

     RDKit          2D

 39 39  0  0  0  0  0  0  0  0999 V2000
    1.2760    5.1962    0.0000 N   0  0  0  0  0  0  0  0  0  0  0  0
    0.5260    6.4952    0.0000 C   0  0  0  0  0  0  0  0  0  0  0  0
    2.7760    5.1962    0.0000 C   0  0  0  0  0  0  0  0  0  0  0  0
    3.5260    6.4952    0.0000 C   0  0  0  0  0  0  0  0  0  0  0  0
    2.7760    7.7942    0.0000 C   0  0  0  0  0  0  0  0  0  0  0  0
    3.5260    9.0933    0.0000 C   0  0  0  0  0  0  0  0  0  0  0  0
    1.2760    7.7942    0.0000 C   0  0  0  0  0  0  0  0  0  0  0  0
    3.5260    3.8971    0.0000 C   0  0  0  0  0  0  0  0  0  0  0  0
    5.0260    3.8971    0.0000 O   0  0  0  0  0  0  0  0  0  0  0  0
    2.7760    2.5981    0.0000 N   0  0  0  0  0  0  0  0  0  0  0  0
    3.5260    1.2990    0.0000 C   0  0  0  0  0  0  0  0  0  0  0  0
    5.0260    1.2990    0.0000 C   0  0  0  0  0  0  0  0  0  0  0  0
    5.7760    0.0000    0.0000 C   0  0  0  0  0  0  0  0  0  0  0  0
    7.2760    0.0000    0.0000 C   0  0  0  0  0  0  0  0  0  0  0  0
    5.0260   -1.2990    0.0000 C   0  0  0  0  0  0  0  0  0  0  0  0
    2.7760    0.0000    0.0000 C   0  0  0  0  0  0  0  0  0  0  0  0
    3.5260   -1.2990    0.0000 O   0  0  0  0  0  0  0  0  0  0  0  0
    1.2760    0.0000    0.0000 N   0  0  0  0  0  0  0  0  0  0  0  0
    0.3943    1.2135    0.0000 C   0  0  0  0  0  0  0  0  0  0  0  0
   -1.0323    0.7500    0.0000 C   0  0  0  0  0  0  0  0  0  0  0  0
   -1.0323   -0.7500    0.0000 C   0  0  0  0  0  0  0  0  0  0  0  0
    0.3943   -1.2135    0.0000 C   0  0  0  0  0  0  0  0  0  0  0  0
    0.8578   -2.6401    0.0000 C   0  0  0  0  0  0  0  0  0  0  0  0
    2.3250   -2.9520    0.0000 O   0  0  0  0  0  0  0  0  0  0  0  0
   -0.1459   -3.7548    0.0000 N   0  0  0  0  0  0  0  0  0  0  0  0
    0.3177   -5.1814    0.0000 C   0  0  0  0  0  0  0  0  0  0  0  0
   -0.6860   -6.2961    0.0000 C   0  0  0  0  0  0  0  0  0  0  0  0
   -0.2225   -7.7227    0.0000 C   0  0  0  0  0  0  0  0  0  0  0  0
   -2.1533   -5.9843    0.0000 C   0  0  0  0  0  0  0  0  0  0  0  0
    1.7849   -5.4933    0.0000 C   0  0  0  0  0  0  0  0  0  0  0  0
    2.7886   -4.3786    0.0000 O   0  0  0  0  0  0  0  0  0  0  0  0
    2.2484   -6.9199    0.0000 N   0  0  0  0  0  0  0  0  0  0  0  0
    3.7156   -7.2317    0.0000 C   0  0  0  0  0  0  0  0  0  0  0  0
    4.1791   -8.6583    0.0000 C   0  0  0  0  0  0  0  0  0  0  0  0
    5.6464   -8.9702    0.0000 C   0  0  0  0  0  0  0  0  0  0  0  0
    7.1136   -9.2821    0.0000 C   0  0  0  0  0  0  0  0  0  0  0  0
    4.7193   -6.1170    0.0000 C   0  0  0  0  0  0  0  0  0  0  0  0
    4.2558   -4.6904    0.0000 O   0  0  0  0  0  0  0  0  0  0  0  0
    6.1865   -6.4289    0.0000 O   0  0  0  0  0  0  0  0  0  0  0  0
  1  2  1  0
  1  3  1  0
  3  4  1  6
  4  5  1  0
  5  6  1  0
  5  7  1  0
  3  8  1  0
  8  9  2  0
  8 10  1  0
 10 11  1  0
 11 12  1  6
 12 13  1  0
 13 14  1  0
 13 15  1  0
 11 16  1  0
 16 17  2  0
 16 18  1  0
 18 19  1  0
 19 20  1  0
 20 21  1  0
 21 22  1  0
 22 23  1  6
 23 24  2  0
 23 25  1  0
 26 25  1  1
 26 27  1  0
 27 28  1  0
 27 29  1  0
 26 30  1  0
 30 31  2  0
 30 32  1  0
 32 33  1  0
 33 34  1  6
 34 35  1  0
 35 36  3  0
 33 37  1  0
 37 38  2  0
 37 39  1  0
 22 18  1  0
M  END
$$$$

     RDKit          2D

 39 39  0  0  0  0  0  0  0  0999 V2000
    8.0260    1.2990    0.0000 N   0  0  0  0  0  0  0  0  0  0  0  0
    7.2760    0.0000    0.0000 C   0  0  0  0  0  0  0  0  0  0  0  0
    8.0260   -1.2990    0.0000 C   0  0  0  0  0  0  0  0  0  0  0  0
    9.5260   -1.2990    0.0000 C   0  0  0  0  0  0  0  0  0  0  0  0
   10.2760   -2.5981    0.0000 C   0  0  0  0  0  0  0  0  0  0  0  0
   10.2760    0.0000    0.0000 C   0  0  0  0  0  0  0  0  0  0  0  0
    5.7760    0.0000    0.0000 C   0  0  0  0  0  0  0  0  0  0  0  0
    5.0260   -1.2990    0.0000 O   0  0  0  0  0  0  0  0  0  0  0  0
    5.0260    1.2990    0.0000 N   0  0  0  0  0  0  0  0  0  0  0  0
    5.7760    2.5981    0.0000 C   0  0  0  0  0  0  0  0  0  0  0  0
    3.5260    1.2990    0.0000 C   0  0  0  0  0  0  0  0  0  0  0  0
    2.7760    2.5981    0.0000 C   0  0  0  0  0  0  0  0  0  0  0  0
    3.5260    3.8971    0.0000 C   0  0  0  0  0  0  0  0  0  0  0  0
    2.7760    5.1962    0.0000 C   0  0  0  0  0  0  0  0  0  0  0  0
    5.0260    3.8971    0.0000 C   0  0  0  0  0  0  0  0  0  0  0  0
    2.7760    0.0000    0.0000 C   0  0  0  0  0  0  0  0  0  0  0  0
    3.5260   -1.2990    0.0000 O   0  0  0  0  0  0  0  0  0  0  0  0
    1.2760    0.0000    0.0000 N   0  0  0  0  0  0  0  0  0  0  0  0
    0.3943    1.2135    0.0000 C   0  0  0  0  0  0  0  0  0  0  0  0
   -1.0323    0.7500    0.0000 C   0  0  0  0  0  0  0  0  0  0  0  0
   -1.0323   -0.7500    0.0000 C   0  0  0  0  0  0  0  0  0  0  0  0
    0.3943   -1.2135    0.0000 C   0  0  0  0  0  0  0  0  0  0  0  0
    0.8578   -2.6401    0.0000 C   0  0  0  0  0  0  0  0  0  0  0  0
    2.3250   -2.9520    0.0000 O   0  0  0  0  0  0  0  0  0  0  0  0
   -0.1459   -3.7548    0.0000 N   0  0  0  0  0  0  0  0  0  0  0  0
    0.3177   -5.1814    0.0000 C   0  0  0  0  0  0  0  0  0  0  0  0
   -0.6860   -6.2961    0.0000 C   0  0  0  0  0  0  0  0  0  0  0  0
   -0.2225   -7.7227    0.0000 C   0  0  0  0  0  0  0  0  0  0  0  0
   -2.1533   -5.9843    0.0000 C   0  0  0  0  0  0  0  0  0  0  0  0
    1.7849   -5.4933    0.0000 C   0  0  0  0  0  0  0  0  0  0  0  0
    2.7886   -4.3786    0.0000 O   0  0  0  0  0  0  0  0  0  0  0  0
    2.2484   -6.9199    0.0000 N   0  0  0  0  0  0  0  0  0  0  0  0
    3.7156   -7.2317    0.0000 C   0  0  0  0  0  0  0  0  0  0  0  0
    4.1791   -8.6583    0.0000 C   0  0  0  0  0  0  0  0  0  0  0  0
    5.6464   -8.9702    0.0000 C   0  0  0  0  0  0  0  0  0  0  0  0
    7.1136   -9.2821    0.0000 C   0  0  0  0  0  0  0  0  0  0  0  0
    4.7193   -6.1170    0.0000 C   0  0  0  0  0  0  0  0  0  0  0  0
    4.2558   -4.6904    0.0000 O   0  0  0  0  0  0  0  0  0  0  0  0
    6.1865   -6.4289    0.0000 O   0  0  0  0  0  0  0  0  0  0  0  0
  2  1  1  1
  2  3  1  0
  3  4  1  0
  4  5  1  0
  4  6  1  0
  2  7  1  0
  7  8  2  0
  7  9  1  0
  9 10  1  0
  9 11  1  0
 11 12  1  6
 12 13  1  0
 13 14  1  0
 13 15  1  0
 11 16  1  0
 16 17  2  0
 16 18  1  0
 18 19  1  0
 19 20  1  0
 20 21  1  0
 21 22  1  0
 22 23  1  6
 23 24  2  0
 23 25  1  0
 26 25  1  1
 26 27  1  0
 27 28  1  0
 27 29  1  0
 26 30  1  0
 30 31  2  0
 30 32  1  0
 32 33  1  0
 33 34  1  6
 34 35  1  0
 35 36  3  0
 33 37  1  0
 37 38  2  0
 37 39  1  0
 22 18  1  0
M  END
$$$$

     RDKit          2D

 39 39  0  0  0  0  0  0  0  0999 V2000
    8.0260    1.2990    0.0000 N   0  0  0  0  0  0  0  0  0  0  0  0
    7.2760    0.0000    0.0000 C   0  0  0  0  0  0  0  0  0  0  0  0
    8.0260   -1.2990    0.0000 C   0  0  0  0  0  0  0  0  0  0  0  0
    9.5260   -1.2990    0.0000 C   0  0  0  0  0  0  0  0  0  0  0  0
   10.2760   -2.5981    0.0000 C   0  0  0  0  0  0  0  0  0  0  0  0
   10.2760    0.0000    0.0000 C   0  0  0  0  0  0  0  0  0  0  0  0
    5.7760    0.0000    0.0000 C   0  0  0  0  0  0  0  0  0  0  0  0
    5.0260   -1.2990    0.0000 O   0  0  0  0  0  0  0  0  0  0  0  0
    5.0260    1.2990    0.0000 N   0  0  0  0  0  0  0  0  0  0  0  0
    5.7760    2.5981    0.0000 C   0  0  0  0  0  0  0  0  0  0  0  0
    3.5260    1.2990    0.0000 C   0  0  0  0  0  0  0  0  0  0  0  0
    2.7760    2.5981    0.0000 C   0  0  0  0  0  0  0  0  0  0  0  0
    3.5260    3.8971    0.0000 C   0  0  0  0  0  0  0  0  0  0  0  0
    2.7760    5.1962    0.0000 C   0  0  0  0  0  0  0  0  0  0  0  0
    5.0260    3.8971    0.0000 C   0  0  0  0  0  0  0  0  0  0  0  0
    2.7760    0.0000    0.0000 C   0  0  0  0  0  0  0  0  0  0  0  0
    3.5260   -1.2990    0.0000 O   0  0  0  0  0  0  0  0  0  0  0  0
    1.2760    0.0000    0.0000 N   0  0  0  0  0  0  0  0  0  0  0  0
    0.3943    1.2135    0.0000 C   0  0  0  0  0  0  0  0  0  0  0  0
   -1.0323    0.7500    0.0000 C   0  0  0  0  0  0  0  0  0  0  0  0
   -1.0323   -0.7500    0.0000 C   0  0  0  0  0  0  0  0  0  0  0  0
    0.3943   -1.2135    0.0000 C   0  0  0  0  0  0  0  0  0  0  0  0
    0.8578   -2.6401    0.0000 C   0  0  0  0  0  0  0  0  0  0  0  0
    2.3250   -2.9520    0.0000 O   0  0  0  0  0  0  0  0  0  0  0  0
   -0.1459   -3.7548    0.0000 N   0  0  0  0  0  0  0  0  0  0  0  0
    0.3177   -5.1814    0.0000 C   0  0  0  0  0  0  0  0  0  0  0  0
   -0.6860   -6.2961    0.0000 C   0  0  0  0  0  0  0  0  0  0  0  0
   -0.2225   -7.7227    0.0000 C   0  0  0  0  0  0  0  0  0  0  0  0
   -2.1533   -5.9843    0.0000 C   0  0  0  0  0  0  0  0  0  0  0  0
    1.7849   -5.4933    0.0000 C   0  0  0  0  0  0  0  0  0  0  0  0
    2.7886   -4.3786    0.0000 O   0  0  0  0  0  0  0  0  0  0  0  0
    2.2484   -6.9199    0.0000 N   0  0  0  0  0  0  0  0  0  0  0  0
    3.7156   -7.2317    0.0000 C   0  0  0  0  0  0  0  0  0  0  0  0
    4.1791   -8.6583    0.0000 C   0  0  0  0  0  0  0  0  0  0  0  0
    5.6464   -8.9702    0.0000 C   0  0  0  0  0  0  0  0  0  0  0  0
    7.1136   -9.2821    0.0000 C   0  0  0  0  0  0  0  0  0  0  0  0
    4.7193   -6.1170    0.0000 C   0  0  0  0  0  0  0  0  0  0  0  0
    4.2558   -4.6904    0.0000 O   0  0  0  0  0  0  0  0  0  0  0  0
    6.1865   -6.4289    0.0000 O   0  0  0  0  0  0  0  0  0  0  0  0
  2  1  1  6
  2  3  1  0
  3  4  1  0
  4  5  1  0
  4  6  1  0
  2  7  1  0
  7  8  2  0
  7  9  1  0
  9 10  1  0
  9 11  1  0
 11 12  1  6
 12 13  1  0
 13 14  1  0
 13 15  1  0
 11 16  1  0
 16 17  2  0
 16 18  1  0
 18 19  1  0
 19 20  1  0
 20 21  1  0
 21 22  1  0
 22 23  1  6
 23 24  2  0
 23 25  1  0
 26 25  1  1
 26 27  1  0
 27 28  1  0
 27 29  1  0
 26 30  1  0
 30 31  2  0
 30 32  1  0
 32 33  1  0
 33 34  1  6
 34 35  1  0
 35 36  3  0
 33 37  1  0
 37 38  2  0
 37 39  1  0
 22 18  1  0
M  END
$$$$

     RDKit          2D

 25 24  0  0  0  0  0  0  0  0999 V2000
    6.4952    6.7500    0.0000 N   0  0  0  0  0  0  0  0  0  0  0  0
    5.1962    7.5000    0.0000 C   0  0  0  0  0  0  0  0  0  0  0  0
    5.1962    9.0000    0.0000 C   0  0  0  0  0  0  0  0  0  0  0  0
    6.4952    9.7500    0.0000 C   0  0  0  0  0  0  0  0  0  0  0  0
    6.4952   11.2500    0.0000 C   0  0  0  0  0  0  0  0  0  0  0  0
    7.7942    9.0000    0.0000 C   0  0  0  0  0  0  0  0  0  0  0  0
    3.8971    6.7500    0.0000 C   0  0  0  0  0  0  0  0  0  0  0  0
    2.5981    7.5000    0.0000 O   0  0  0  0  0  0  0  0  0  0  0  0
    3.8971    5.2500    0.0000 N   0  0  0  0  0  0  0  0  0  0  0  0
    2.5981    4.5000    0.0000 C   0  0  0  0  0  0  0  0  0  0  0  0
    5.1962    4.5000    0.0000 C   0  0  0  0  0  0  0  0  0  0  0  0
    6.4952    5.2500    0.0000 C   0  0  0  0  0  0  0  0  0  0  0  0
    7.7942    4.5000    0.0000 C   0  0  0  0  0  0  0  0  0  0  0  0
    9.0933    5.2500    0.0000 C   0  0  0  0  0  0  0  0  0  0  0  0
    7.7942    3.0000    0.0000 C   0  0  0  0  0  0  0  0  0  0  0  0
    5.1962    3.0000    0.0000 C   0  0  0  0  0  0  0  0  0  0  0  0
    3.8971    2.2500    0.0000 O   0  0  0  0  0  0  0  0  0  0  0  0
    6.4952    2.2500    0.0000 N   0  0  0  0  0  0  0  0  0  0  0  0
    6.4952    0.7500    0.0000 C   0  0  0  0  0  0  0  0  0  0  0  0
    7.7942    0.0000    0.0000 C   0  0  0  0  0  0  0  0  0  0  0  0
    7.7942   -1.5000    0.0000 C   0  0  0  0  0  0  0  0  0  0  0  0
    7.7942   -3.0000    0.0000 C   0  0  0  0  0  0  0  0  0  0  0  0
    5.1962   -0.0000    0.0000 C   0  0  0  0  0  0  0  0  0  0  0  0
    3.8971    0.7500    0.0000 O   0  0  0  0  0  0  0  0  0  0  0  0
    5.1962   -1.5000    0.0000 O   0  0  0  0  0  0  0  0  0  0  0  0
  2  1  1  6
  2  3  1  0
  3  4  1  0
  4  5  1  0
  4  6  1  0
  2  7  1  0
  7  8  2  0
  7  9  1  0
  9 10  1  0
  9 11  1  0
 11 12  1  1
 12 13  1  0
 13 14  1  0
 13 15  1  0
 11 16  1  0
 16 17  2  0
 16 18  1  0
 18 19  1  0
 19 20  1  1
 20 21  1  0
 21 22  3  0
 19 23  1  0
 23 24  2  0
 23 25  1  0
M  END
$$$$

     RDKit          2D

 25 24  0  0  0  0  0  0  0  0999 V2000
    6.4952    6.7500    0.0000 N   0  0  0  0  0  0  0  0  0  0  0  0
    5.1962    7.5000    0.0000 C   0  0  0  0  0  0  0  0  0  0  0  0
    5.1962    9.0000    0.0000 C   0  0  0  0  0  0  0  0  0  0  0  0
    6.4952    9.7500    0.0000 C   0  0  0  0  0  0  0  0  0  0  0  0
    6.4952   11.2500    0.0000 C   0  0  0  0  0  0  0  0  0  0  0  0
    7.7942    9.0000    0.0000 C   0  0  0  0  0  0  0  0  0  0  0  0
    3.8971    6.7500    0.0000 C   0  0  0  0  0  0  0  0  0  0  0  0
    2.5981    7.5000    0.0000 O   0  0  0  0  0  0  0  0  0  0  0  0
    3.8971    5.2500    0.0000 N   0  0  0  0  0  0  0  0  0  0  0  0
    2.5981    4.5000    0.0000 C   0  0  0  0  0  0  0  0  0  0  0  0
    5.1962    4.5000    0.0000 C   0  0  0  0  0  0  0  0  0  0  0  0
    6.4952    5.2500    0.0000 C   0  0  0  0  0  0  0  0  0  0  0  0
    7.7942    4.5000    0.0000 C   0  0  0  0  0  0  0  0  0  0  0  0
    9.0933    5.2500    0.0000 C   0  0  0  0  0  0  0  0  0  0  0  0
    7.7942    3.0000    0.0000 C   0  0  0  0  0  0  0  0  0  0  0  0
    5.1962    3.0000    0.0000 C   0  0  0  0  0  0  0  0  0  0  0  0
    3.8971    2.2500    0.0000 O   0  0  0  0  0  0  0  0  0  0  0  0
    6.4952    2.2500    0.0000 N   0  0  0  0  0  0  0  0  0  0  0  0
    6.4952    0.7500    0.0000 C   0  0  0  0  0  0  0  0  0  0  0  0
    7.7942    0.0000    0.0000 C   0  0  0  0  0  0  0  0  0  0  0  0
    7.7942   -1.5000    0.0000 C   0  0  0  0  0  0  0  0  0  0  0  0
    7.7942   -3.0000    0.0000 C   0  0  0  0  0  0  0  0  0  0  0  0
    5.1962   -0.0000    0.0000 C   0  0  0  0  0  0  0  0  0  0  0  0
    3.8971    0.7500    0.0000 O   0  0  0  0  0  0  0  0  0  0  0  0
    5.1962   -1.5000    0.0000 O   0  0  0  0  0  0  0  0  0  0  0  0
  2  1  1  1
  2  3  1  0
  3  4  1  0
  4  5  1  0
  4  6  1  0
  2  7  1  0
  7  8  2  0
  7  9  1  0
  9 10  1  0
  9 11  1  0
 11 12  1  1
 12 13  1  0
 13 14  1  0
 13 15  1  0
 11 16  1  0
 16 17  2  0
 16 18  1  0
 18 19  1  0
 19 20  1  1
 20 21  1  0
 21 22  3  0
 19 23  1  0
 23 24  2  0
 23 25  1  0
M  END
$$$$

     RDKit          2D

 24 23  0  0  0  0  0  0  0  0999 V2000
    2.5981    7.5000    0.0000 N   0  0  0  0  0  0  0  0  0  0  0  0
    3.8971    6.7500    0.0000 C   0  0  0  0  0  0  0  0  0  0  0  0
    5.1962    7.5000    0.0000 C   0  0  0  0  0  0  0  0  0  0  0  0
    5.1962    9.0000    0.0000 C   0  0  0  0  0  0  0  0  0  0  0  0
    6.4952    6.7500    0.0000 C   0  0  0  0  0  0  0  0  0  0  0  0
    3.8971    5.2500    0.0000 C   0  0  0  0  0  0  0  0  0  0  0  0
    5.1962    4.5000    0.0000 O   0  0  0  0  0  0  0  0  0  0  0  0
    2.5981    4.5000    0.0000 N   0  0  0  0  0  0  0  0  0  0  0  0
    2.5981    3.0000    0.0000 C   0  0  0  0  0  0  0  0  0  0  0  0
    1.2990    5.2500    0.0000 C   0  0  0  0  0  0  0  0  0  0  0  0
    1.2990    6.7500    0.0000 C   0  0  0  0  0  0  0  0  0  0  0  0
    0.0000    7.5000    0.0000 C   0  0  0  0  0  0  0  0  0  0  0  0
    0.0000    9.0000    0.0000 C   0  0  0  0  0  0  0  0  0  0  0  0
   -1.2990    6.7500    0.0000 C   0  0  0  0  0  0  0  0  0  0  0  0
    0.0000    4.5000    0.0000 C   0  0  0  0  0  0  0  0  0  0  0  0
   -0.0000    3.0000    0.0000 O   0  0  0  0  0  0  0  0  0  0  0  0
   -1.2990    5.2500    0.0000 N   0  0  0  0  0  0  0  0  0  0  0  0
   -2.5981    4.5000    0.0000 C   0  0  0  0  0  0  0  0  0  0  0  0
   -3.8971    5.2500    0.0000 C   0  0  0  0  0  0  0  0  0  0  0  0
   -5.1962    4.5000    0.0000 C   0  0  0  0  0  0  0  0  0  0  0  0
   -6.4952    3.7500    0.0000 C   0  0  0  0  0  0  0  0  0  0  0  0
   -2.5981    3.0000    0.0000 C   0  0  0  0  0  0  0  0  0  0  0  0
   -1.2990    2.2500    0.0000 O   0  0  0  0  0  0  0  0  0  0  0  0
   -3.8971    2.2500    0.0000 O   0  0  0  0  0  0  0  0  0  0  0  0
  2  1  1  1
  2  3  1  0
  3  4  1  0
  3  5  1  0
  2  6  1  0
  6  7  2  0
  6  8  1  0
  8  9  1  0
  8 10  1  0
 10 11  1  6
 11 12  1  0
 12 13  1  0
 12 14  1  0
 10 15  1  0
 15 16  2  0
 15 17  1  0
 17 18  1  0
 18 19  1  6
 19 20  1  0
 20 21  3  0
 18 22  1  0
 22 23  2  0
 22 24  1  0
M  END
$$$$

     RDKit          2D

 24 23  0  0  0  0  0  0  0  0999 V2000
    2.5981    7.5000    0.0000 N   0  0  0  0  0  0  0  0  0  0  0  0
    3.8971    6.7500    0.0000 C   0  0  0  0  0  0  0  0  0  0  0  0
    5.1962    7.5000    0.0000 C   0  0  0  0  0  0  0  0  0  0  0  0
    5.1962    9.0000    0.0000 C   0  0  0  0  0  0  0  0  0  0  0  0
    6.4952    6.7500    0.0000 C   0  0  0  0  0  0  0  0  0  0  0  0
    3.8971    5.2500    0.0000 C   0  0  0  0  0  0  0  0  0  0  0  0
    5.1962    4.5000    0.0000 O   0  0  0  0  0  0  0  0  0  0  0  0
    2.5981    4.5000    0.0000 N   0  0  0  0  0  0  0  0  0  0  0  0
    2.5981    3.0000    0.0000 C   0  0  0  0  0  0  0  0  0  0  0  0
    1.2990    5.2500    0.0000 C   0  0  0  0  0  0  0  0  0  0  0  0
    1.2990    6.7500    0.0000 C   0  0  0  0  0  0  0  0  0  0  0  0
    0.0000    7.5000    0.0000 C   0  0  0  0  0  0  0  0  0  0  0  0
    0.0000    9.0000    0.0000 C   0  0  0  0  0  0  0  0  0  0  0  0
   -1.2990    6.7500    0.0000 C   0  0  0  0  0  0  0  0  0  0  0  0
    0.0000    4.5000    0.0000 C   0  0  0  0  0  0  0  0  0  0  0  0
   -0.0000    3.0000    0.0000 O   0  0  0  0  0  0  0  0  0  0  0  0
   -1.2990    5.2500    0.0000 N   0  0  0  0  0  0  0  0  0  0  0  0
   -2.5981    4.5000    0.0000 C   0  0  0  0  0  0  0  0  0  0  0  0
   -3.8971    5.2500    0.0000 C   0  0  0  0  0  0  0  0  0  0  0  0
   -5.1962    4.5000    0.0000 C   0  0  0  0  0  0  0  0  0  0  0  0
   -6.4952    3.7500    0.0000 C   0  0  0  0  0  0  0  0  0  0  0  0
   -2.5981    3.0000    0.0000 C   0  0  0  0  0  0  0  0  0  0  0  0
   -1.2990    2.2500    0.0000 O   0  0  0  0  0  0  0  0  0  0  0  0
   -3.8971    2.2500    0.0000 O   0  0  0  0  0  0  0  0  0  0  0  0
  2  1  1  6
  2  3  1  0
  3  4  1  0
  3  5  1  0
  2  6  1  0
  6  7  2  0
  6  8  1  0
  8  9  1  0
  8 10  1  0
 10 11  1  6
 11 12  1  0
 12 13  1  0
 12 14  1  0
 10 15  1  0
 15 16  2  0
 15 17  1  0
 17 18  1  0
 18 19  1  6
 19 20  1  0
 20 21  3  0
 18 22  1  0
 22 23  2  0
 22 24  1  0
M  END
$$$$

     RDKit          2D

 26 25  0  0  0  0  0  0  0  0999 V2000
    1.2990   -3.7500    0.0000 N   0  0  0  0  0  0  0  0  0  0  0  0
    2.5981   -4.5000    0.0000 C   0  0  0  0  0  0  0  0  0  0  0  0
    1.2990   -2.2500    0.0000 C   0  0  0  0  0  0  0  0  0  0  0  0
   -0.0000   -1.5000    0.0000 C   0  0  0  0  0  0  0  0  0  0  0  0
   -0.0000   -0.0000    0.0000 C   0  0  0  0  0  0  0  0  0  0  0  0
   -1.2990    0.7500    0.0000 C   0  0  0  0  0  0  0  0  0  0  0  0
    1.2990    0.7500    0.0000 C   0  0  0  0  0  0  0  0  0  0  0  0
    2.5981   -1.5000    0.0000 C   0  0  0  0  0  0  0  0  0  0  0  0
    2.5981   -0.0000    0.0000 O   0  0  0  0  0  0  0  0  0  0  0  0
    3.8971   -2.2500    0.0000 N   0  0  0  0  0  0  0  0  0  0  0  0
    3.8971   -3.7500    0.0000 C   0  0  0  0  0  0  0  0  0  0  0  0
    5.1962   -1.5000    0.0000 C   0  0  0  0  0  0  0  0  0  0  0  0
    6.4952   -2.2500    0.0000 C   0  0  0  0  0  0  0  0  0  0  0  0
    7.7942   -1.5000    0.0000 C   0  0  0  0  0  0  0  0  0  0  0  0
    9.0933   -2.2500    0.0000 C   0  0  0  0  0  0  0  0  0  0  0  0
    7.7942    0.0000    0.0000 C   0  0  0  0  0  0  0  0  0  0  0  0
    5.1962    0.0000    0.0000 C   0  0  0  0  0  0  0  0  0  0  0  0
    3.8971    0.7500    0.0000 O   0  0  0  0  0  0  0  0  0  0  0  0
    6.4952    0.7500    0.0000 N   0  0  0  0  0  0  0  0  0  0  0  0
    6.4952    2.2500    0.0000 C   0  0  0  0  0  0  0  0  0  0  0  0
    7.7942    3.0000    0.0000 C   0  0  0  0  0  0  0  0  0  0  0  0
    7.7942    4.5000    0.0000 C   0  0  0  0  0  0  0  0  0  0  0  0
    7.7942    6.0000    0.0000 C   0  0  0  0  0  0  0  0  0  0  0  0
    5.1962    3.0000    0.0000 C   0  0  0  0  0  0  0  0  0  0  0  0
    3.8971    2.2500    0.0000 O   0  0  0  0  0  0  0  0  0  0  0  0
    5.1962    4.5000    0.0000 O   0  0  0  0  0  0  0  0  0  0  0  0
  1  2  1  0
  1  3  1  0
  3  4  1  1
  4  5  1  0
  5  6  1  0
  5  7  1  0
  3  8  1  0
  8  9  2  0
  8 10  1  0
 10 11  1  0
 10 12  1  0
 12 13  1  6
 13 14  1  0
 14 15  1  0
 14 16  1  0
 12 17  1  0
 17 18  2  0
 17 19  1  0
 19 20  1  0
 20 21  1  6
 21 22  1  0
 22 23  3  0
 20 24  1  0
 24 25  2  0
 24 26  1  0
M  END
$$$$

     RDKit          2D

 26 25  0  0  0  0  0  0  0  0999 V2000
    1.2990   -3.7500    0.0000 N   0  0  0  0  0  0  0  0  0  0  0  0
    2.5981   -4.5000    0.0000 C   0  0  0  0  0  0  0  0  0  0  0  0
    1.2990   -2.2500    0.0000 C   0  0  0  0  0  0  0  0  0  0  0  0
   -0.0000   -1.5000    0.0000 C   0  0  0  0  0  0  0  0  0  0  0  0
   -0.0000   -0.0000    0.0000 C   0  0  0  0  0  0  0  0  0  0  0  0
   -1.2990    0.7500    0.0000 C   0  0  0  0  0  0  0  0  0  0  0  0
    1.2990    0.7500    0.0000 C   0  0  0  0  0  0  0  0  0  0  0  0
    2.5981   -1.5000    0.0000 C   0  0  0  0  0  0  0  0  0  0  0  0
    2.5981   -0.0000    0.0000 O   0  0  0  0  0  0  0  0  0  0  0  0
    3.8971   -2.2500    0.0000 N   0  0  0  0  0  0  0  0  0  0  0  0
    3.8971   -3.7500    0.0000 C   0  0  0  0  0  0  0  0  0  0  0  0
    5.1962   -1.5000    0.0000 C   0  0  0  0  0  0  0  0  0  0  0  0
    6.4952   -2.2500    0.0000 C   0  0  0  0  0  0  0  0  0  0  0  0
    7.7942   -1.5000    0.0000 C   0  0  0  0  0  0  0  0  0  0  0  0
    9.0933   -2.2500    0.0000 C   0  0  0  0  0  0  0  0  0  0  0  0
    7.7942    0.0000    0.0000 C   0  0  0  0  0  0  0  0  0  0  0  0
    5.1962    0.0000    0.0000 C   0  0  0  0  0  0  0  0  0  0  0  0
    3.8971    0.7500    0.0000 O   0  0  0  0  0  0  0  0  0  0  0  0
    6.4952    0.7500    0.0000 N   0  0  0  0  0  0  0  0  0  0  0  0
    6.4952    2.2500    0.0000 C   0  0  0  0  0  0  0  0  0  0  0  0
    7.7942    3.0000    0.0000 C   0  0  0  0  0  0  0  0  0  0  0  0
    7.7942    4.5000    0.0000 C   0  0  0  0  0  0  0  0  0  0  0  0
    7.7942    6.0000    0.0000 C   0  0  0  0  0  0  0  0  0  0  0  0
    5.1962    3.0000    0.0000 C   0  0  0  0  0  0  0  0  0  0  0  0
    3.8971    2.2500    0.0000 O   0  0  0  0  0  0  0  0  0  0  0  0
    5.1962    4.5000    0.0000 O   0  0  0  0  0  0  0  0  0  0  0  0
  1  2  1  0
  1  3  1  0
  3  4  1  6
  4  5  1  0
  5  6  1  0
  5  7  1  0
  3  8  1  0
  8  9  2  0
  8 10  1  0
 10 11  1  0
 10 12  1  0
 12 13  1  6
 13 14  1  0
 14 15  1  0
 14 16  1  0
 12 17  1  0
 17 18  2  0
 17 19  1  0
 19 20  1  0
 20 21  1  6
 21 22  1  0
 22 23  3  0
 20 24  1  0
 24 25  2  0
 24 26  1  0
M  END
$$$$

     RDKit          2D

 28 28  0  0  0  0  0  0  0  0999 V2000
    7.5000   -5.1962    0.0000 N   0  0  0  0  0  0  0  0  0  0  0  0
    8.2500   -3.8971    0.0000 C   0  0  0  0  0  0  0  0  0  0  0  0
    9.7500   -3.8971    0.0000 C   0  0  0  0  0  0  0  0  0  0  0  0
   10.5000   -5.1962    0.0000 C   0  0  0  0  0  0  0  0  0  0  0  0
    9.7500   -6.4952    0.0000 C   0  0  0  0  0  0  0  0  0  0  0  0
   10.5000   -7.7942    0.0000 C   0  0  0  0  0  0  0  0  0  0  0  0
   12.0000   -7.7942    0.0000 C   0  0  0  0  0  0  0  0  0  0  0  0
   12.7500   -6.4952    0.0000 C   0  0  0  0  0  0  0  0  0  0  0  0
   12.0000   -5.1962    0.0000 C   0  0  0  0  0  0  0  0  0  0  0  0
    7.5000   -2.5981    0.0000 C   0  0  0  0  0  0  0  0  0  0  0  0
    8.2500   -1.2990    0.0000 O   0  0  0  0  0  0  0  0  0  0  0  0
    6.0000   -2.5981    0.0000 N   0  0  0  0  0  0  0  0  0  0  0  0
    5.2500   -1.2990    0.0000 C   0  0  0  0  0  0  0  0  0  0  0  0
    5.2500   -3.8971    0.0000 C   0  0  0  0  0  0  0  0  0  0  0  0
    6.0000   -5.1962    0.0000 C   0  0  0  0  0  0  0  0  0  0  0  0
    5.2500   -6.4952    0.0000 C   0  0  0  0  0  0  0  0  0  0  0  0
    6.0000   -7.7942    0.0000 C   0  0  0  0  0  0  0  0  0  0  0  0
    3.7500   -6.4952    0.0000 C   0  0  0  0  0  0  0  0  0  0  0  0
    3.7500   -3.8971    0.0000 C   0  0  0  0  0  0  0  0  0  0  0  0
    3.0000   -2.5981    0.0000 O   0  0  0  0  0  0  0  0  0  0  0  0
    3.0000   -5.1962    0.0000 N   0  0  0  0  0  0  0  0  0  0  0  0
    1.5000   -5.1962    0.0000 C   0  0  0  0  0  0  0  0  0  0  0  0
    0.7500   -6.4952    0.0000 C   0  0  0  0  0  0  0  0  0  0  0  0
   -0.7500   -6.4952    0.0000 C   0  0  0  0  0  0  0  0  0  0  0  0
   -2.2500   -6.4952    0.0000 C   0  0  0  0  0  0  0  0  0  0  0  0
    0.7500   -3.8971    0.0000 C   0  0  0  0  0  0  0  0  0  0  0  0
    1.5000   -2.5981    0.0000 O   0  0  0  0  0  0  0  0  0  0  0  0
   -0.7500   -3.8971    0.0000 O   0  0  0  0  0  0  0  0  0  0  0  0
  2  1  1  6
  2  3  1  0
  3  4  1  0
  4  5  2  0
  5  6  1  0
  6  7  2  0
  7  8  1  0
  8  9  2  0
  2 10  1  0
 10 11  2  0
 10 12  1  0
 12 13  1  0
 12 14  1  0
 14 15  1  1
 15 16  1  0
 16 17  1  0
 16 18  1  0
 14 19  1  0
 19 20  2  0
 19 21  1  0
 21 22  1  0
 22 23  1  1
 23 24  1  0
 24 25  3  0
 22 26  1  0
 26 27  2  0
 26 28  1  0
  9  4  1  0
M  END
$$$$

     RDKit          2D

 28 28  0  0  0  0  0  0  0  0999 V2000
    7.5000   -5.1962    0.0000 N   0  0  0  0  0  0  0  0  0  0  0  0
    8.2500   -3.8971    0.0000 C   0  0  0  0  0  0  0  0  0  0  0  0
    9.7500   -3.8971    0.0000 C   0  0  0  0  0  0  0  0  0  0  0  0
   10.5000   -5.1962    0.0000 C   0  0  0  0  0  0  0  0  0  0  0  0
    9.7500   -6.4952    0.0000 C   0  0  0  0  0  0  0  0  0  0  0  0
   10.5000   -7.7942    0.0000 C   0  0  0  0  0  0  0  0  0  0  0  0
   12.0000   -7.7942    0.0000 C   0  0  0  0  0  0  0  0  0  0  0  0
   12.7500   -6.4952    0.0000 C   0  0  0  0  0  0  0  0  0  0  0  0
   12.0000   -5.1962    0.0000 C   0  0  0  0  0  0  0  0  0  0  0  0
    7.5000   -2.5981    0.0000 C   0  0  0  0  0  0  0  0  0  0  0  0
    8.2500   -1.2990    0.0000 O   0  0  0  0  0  0  0  0  0  0  0  0
    6.0000   -2.5981    0.0000 N   0  0  0  0  0  0  0  0  0  0  0  0
    5.2500   -1.2990    0.0000 C   0  0  0  0  0  0  0  0  0  0  0  0
    5.2500   -3.8971    0.0000 C   0  0  0  0  0  0  0  0  0  0  0  0
    6.0000   -5.1962    0.0000 C   0  0  0  0  0  0  0  0  0  0  0  0
    5.2500   -6.4952    0.0000 C   0  0  0  0  0  0  0  0  0  0  0  0
    6.0000   -7.7942    0.0000 C   0  0  0  0  0  0  0  0  0  0  0  0
    3.7500   -6.4952    0.0000 C   0  0  0  0  0  0  0  0  0  0  0  0
    3.7500   -3.8971    0.0000 C   0  0  0  0  0  0  0  0  0  0  0  0
    3.0000   -2.5981    0.0000 O   0  0  0  0  0  0  0  0  0  0  0  0
    3.0000   -5.1962    0.0000 N   0  0  0  0  0  0  0  0  0  0  0  0
    1.5000   -5.1962    0.0000 C   0  0  0  0  0  0  0  0  0  0  0  0
    0.7500   -6.4952    0.0000 C   0  0  0  0  0  0  0  0  0  0  0  0
   -0.7500   -6.4952    0.0000 C   0  0  0  0  0  0  0  0  0  0  0  0
   -2.2500   -6.4952    0.0000 C   0  0  0  0  0  0  0  0  0  0  0  0
    0.7500   -3.8971    0.0000 C   0  0  0  0  0  0  0  0  0  0  0  0
    1.5000   -2.5981    0.0000 O   0  0  0  0  0  0  0  0  0  0  0  0
   -0.7500   -3.8971    0.0000 O   0  0  0  0  0  0  0  0  0  0  0  0
  2  1  1  1
  2  3  1  0
  3  4  1  0
  4  5  2  0
  5  6  1  0
  6  7  2  0
  7  8  1  0
  8  9  2  0
  2 10  1  0
 10 11  2  0
 10 12  1  0
 12 13  1  0
 12 14  1  0
 14 15  1  1
 15 16  1  0
 16 17  1  0
 16 18  1  0
 14 19  1  0
 19 20  2  0
 19 21  1  0
 21 22  1  0
 22 23  1  1
 23 24  1  0
 24 25  3  0
 22 26  1  0
 26 27  2  0
 26 28  1  0
  9  4  1  0
M  END
$$$$

     RDKit          2D

 29 29  0  0  0  0  0  0  0  0999 V2000
    7.5000    0.0000    0.0000 N   0  0  0  0  0  0  0  0  0  0  0  0
    6.0000    0.0000    0.0000 C   0  0  0  0  0  0  0  0  0  0  0  0
    8.2500   -1.2990    0.0000 C   0  0  0  0  0  0  0  0  0  0  0  0
    9.7500   -1.2990    0.0000 C   0  0  0  0  0  0  0  0  0  0  0  0
   10.5000    0.0000    0.0000 C   0  0  0  0  0  0  0  0  0  0  0  0
    9.7500    1.2990    0.0000 C   0  0  0  0  0  0  0  0  0  0  0  0
   10.5000    2.5981    0.0000 C   0  0  0  0  0  0  0  0  0  0  0  0
   12.0000    2.5981    0.0000 C   0  0  0  0  0  0  0  0  0  0  0  0
   12.7500    1.2990    0.0000 C   0  0  0  0  0  0  0  0  0  0  0  0
   12.0000    0.0000    0.0000 C   0  0  0  0  0  0  0  0  0  0  0  0
    7.5000   -2.5981    0.0000 C   0  0  0  0  0  0  0  0  0  0  0  0
    8.2500   -3.8971    0.0000 O   0  0  0  0  0  0  0  0  0  0  0  0
    6.0000   -2.5981    0.0000 N   0  0  0  0  0  0  0  0  0  0  0  0
    5.2500   -1.2990    0.0000 C   0  0  0  0  0  0  0  0  0  0  0  0
    5.2500   -3.8971    0.0000 C   0  0  0  0  0  0  0  0  0  0  0  0
    6.0000   -5.1962    0.0000 C   0  0  0  0  0  0  0  0  0  0  0  0
    5.2500   -6.4952    0.0000 C   0  0  0  0  0  0  0  0  0  0  0  0
    6.0000   -7.7942    0.0000 C   0  0  0  0  0  0  0  0  0  0  0  0
    3.7500   -6.4952    0.0000 C   0  0  0  0  0  0  0  0  0  0  0  0
    3.7500   -3.8971    0.0000 C   0  0  0  0  0  0  0  0  0  0  0  0
    3.0000   -2.5981    0.0000 O   0  0  0  0  0  0  0  0  0  0  0  0
    3.0000   -5.1962    0.0000 N   0  0  0  0  0  0  0  0  0  0  0  0
    1.5000   -5.1962    0.0000 C   0  0  0  0  0  0  0  0  0  0  0  0
    0.7500   -6.4952    0.0000 C   0  0  0  0  0  0  0  0  0  0  0  0
   -0.7500   -6.4952    0.0000 C   0  0  0  0  0  0  0  0  0  0  0  0
   -2.2500   -6.4952    0.0000 C   0  0  0  0  0  0  0  0  0  0  0  0
    0.7500   -3.8971    0.0000 C   0  0  0  0  0  0  0  0  0  0  0  0
    1.5000   -2.5981    0.0000 O   0  0  0  0  0  0  0  0  0  0  0  0
   -0.7500   -3.8971    0.0000 O   0  0  0  0  0  0  0  0  0  0  0  0
  1  2  1  0
  1  3  1  0
  3  4  1  1
  4  5  1  0
  5  6  2  0
  6  7  1  0
  7  8  2  0
  8  9  1  0
  9 10  2  0
  3 11  1  0
 11 12  2  0
 11 13  1  0
 13 14  1  0
 13 15  1  0
 15 16  1  1
 16 17  1  0
 17 18  1  0
 17 19  1  0
 15 20  1  0
 20 21  2  0
 20 22  1  0
 22 23  1  0
 23 24  1  1
 24 25  1  0
 25 26  3  0
 23 27  1  0
 27 28  2  0
 27 29  1  0
 10  5  1  0
M  END
$$$$

     RDKit          2D

 29 29  0  0  0  0  0  0  0  0999 V2000
    7.5000    0.0000    0.0000 N   0  0  0  0  0  0  0  0  0  0  0  0
    6.0000    0.0000    0.0000 C   0  0  0  0  0  0  0  0  0  0  0  0
    8.2500   -1.2990    0.0000 C   0  0  0  0  0  0  0  0  0  0  0  0
    9.7500   -1.2990    0.0000 C   0  0  0  0  0  0  0  0  0  0  0  0
   10.5000    0.0000    0.0000 C   0  0  0  0  0  0  0  0  0  0  0  0
    9.7500    1.2990    0.0000 C   0  0  0  0  0  0  0  0  0  0  0  0
   10.5000    2.5981    0.0000 C   0  0  0  0  0  0  0  0  0  0  0  0
   12.0000    2.5981    0.0000 C   0  0  0  0  0  0  0  0  0  0  0  0
   12.7500    1.2990    0.0000 C   0  0  0  0  0  0  0  0  0  0  0  0
   12.0000    0.0000    0.0000 C   0  0  0  0  0  0  0  0  0  0  0  0
    7.5000   -2.5981    0.0000 C   0  0  0  0  0  0  0  0  0  0  0  0
    8.2500   -3.8971    0.0000 O   0  0  0  0  0  0  0  0  0  0  0  0
    6.0000   -2.5981    0.0000 N   0  0  0  0  0  0  0  0  0  0  0  0
    5.2500   -1.2990    0.0000 C   0  0  0  0  0  0  0  0  0  0  0  0
    5.2500   -3.8971    0.0000 C   0  0  0  0  0  0  0  0  0  0  0  0
    6.0000   -5.1962    0.0000 C   0  0  0  0  0  0  0  0  0  0  0  0
    5.2500   -6.4952    0.0000 C   0  0  0  0  0  0  0  0  0  0  0  0
    6.0000   -7.7942    0.0000 C   0  0  0  0  0  0  0  0  0  0  0  0
    3.7500   -6.4952    0.0000 C   0  0  0  0  0  0  0  0  0  0  0  0
    3.7500   -3.8971    0.0000 C   0  0  0  0  0  0  0  0  0  0  0  0
    3.0000   -2.5981    0.0000 O   0  0  0  0  0  0  0  0  0  0  0  0
    3.0000   -5.1962    0.0000 N   0  0  0  0  0  0  0  0  0  0  0  0
    1.5000   -5.1962    0.0000 C   0  0  0  0  0  0  0  0  0  0  0  0
    0.7500   -6.4952    0.0000 C   0  0  0  0  0  0  0  0  0  0  0  0
   -0.7500   -6.4952    0.0000 C   0  0  0  0  0  0  0  0  0  0  0  0
   -2.2500   -6.4952    0.0000 C   0  0  0  0  0  0  0  0  0  0  0  0
    0.7500   -3.8971    0.0000 C   0  0  0  0  0  0  0  0  0  0  0  0
    1.5000   -2.5981    0.0000 O   0  0  0  0  0  0  0  0  0  0  0  0
   -0.7500   -3.8971    0.0000 O   0  0  0  0  0  0  0  0  0  0  0  0
  1  2  1  0
  1  3  1  0
  3  4  1  6
  4  5  1  0
  5  6  2  0
  6  7  1  0
  7  8  2  0
  8  9  1  0
  9 10  2  0
  3 11  1  0
 11 12  2  0
 11 13  1  0
 13 14  1  0
 13 15  1  0
 15 16  1  1
 16 17  1  0
 17 18  1  0
 17 19  1  0
 15 20  1  0
 20 21  2  0
 20 22  1  0
 22 23  1  0
 23 24  1  1
 24 25  1  0
 25 26  3  0
 23 27  1  0
 27 28  2  0
 27 29  1  0
 10  5  1  0
M  END
$$$$

     RDKit          2D

 24 23  0  0  0  0  0  0  0  0999 V2000
    7.7942   -1.5000    0.0000 N   0  0  0  0  0  0  0  0  0  0  0  0
    7.7942   -0.0000    0.0000 C   0  0  0  0  0  0  0  0  0  0  0  0
    9.0933    0.7500    0.0000 C   0  0  0  0  0  0  0  0  0  0  0  0
    9.0933    2.2500    0.0000 O   0  0  0  0  0  0  0  0  0  0  0  0
   10.3923   -0.0000    0.0000 C   0  0  0  0  0  0  0  0  0  0  0  0
    6.4952    0.7500    0.0000 C   0  0  0  0  0  0  0  0  0  0  0  0
    6.4952    2.2500    0.0000 O   0  0  0  0  0  0  0  0  0  0  0  0
    5.1962   -0.0000    0.0000 N   0  0  0  0  0  0  0  0  0  0  0  0
    3.8971    0.7500    0.0000 C   0  0  0  0  0  0  0  0  0  0  0  0
    5.1962   -1.5000    0.0000 C   0  0  0  0  0  0  0  0  0  0  0  0
    6.4952   -2.2500    0.0000 C   0  0  0  0  0  0  0  0  0  0  0  0
    6.4952   -3.7500    0.0000 C   0  0  0  0  0  0  0  0  0  0  0  0
    7.7942   -4.5000    0.0000 C   0  0  0  0  0  0  0  0  0  0  0  0
    5.1962   -4.5000    0.0000 C   0  0  0  0  0  0  0  0  0  0  0  0
    3.8971   -2.2500    0.0000 C   0  0  0  0  0  0  0  0  0  0  0  0
    2.5981   -1.5000    0.0000 O   0  0  0  0  0  0  0  0  0  0  0  0
    3.8971   -3.7500    0.0000 N   0  0  0  0  0  0  0  0  0  0  0  0
    2.5981   -4.5000    0.0000 C   0  0  0  0  0  0  0  0  0  0  0  0
    2.5981   -6.0000    0.0000 C   0  0  0  0  0  0  0  0  0  0  0  0
    1.2990   -6.7500    0.0000 C   0  0  0  0  0  0  0  0  0  0  0  0
   -0.0000   -7.5000    0.0000 C   0  0  0  0  0  0  0  0  0  0  0  0
    1.2990   -3.7500    0.0000 C   0  0  0  0  0  0  0  0  0  0  0  0
    1.2990   -2.2500    0.0000 O   0  0  0  0  0  0  0  0  0  0  0  0
   -0.0000   -4.5000    0.0000 O   0  0  0  0  0  0  0  0  0  0  0  0
  2  1  1  6
  2  3  1  0
  3  4  1  0
  3  5  1  6
  2  6  1  0
  6  7  2  0
  6  8  1  0
  8  9  1  0
  8 10  1  0
 10 11  1  1
 11 12  1  0
 12 13  1  0
 12 14  1  0
 10 15  1  0
 15 16  2  0
 15 17  1  0
 17 18  1  0
 18 19  1  1
 19 20  1  0
 20 21  3  0
 18 22  1  0
 22 23  2  0
 22 24  1  0
M  END
$$$$

     RDKit          2D

 24 23  0  0  0  0  0  0  0  0999 V2000
    7.7942   -1.5000    0.0000 N   0  0  0  0  0  0  0  0  0  0  0  0
    7.7942   -0.0000    0.0000 C   0  0  0  0  0  0  0  0  0  0  0  0
    9.0933    0.7500    0.0000 C   0  0  0  0  0  0  0  0  0  0  0  0
    9.0933    2.2500    0.0000 O   0  0  0  0  0  0  0  0  0  0  0  0
   10.3923   -0.0000    0.0000 C   0  0  0  0  0  0  0  0  0  0  0  0
    6.4952    0.7500    0.0000 C   0  0  0  0  0  0  0  0  0  0  0  0
    6.4952    2.2500    0.0000 O   0  0  0  0  0  0  0  0  0  0  0  0
    5.1962   -0.0000    0.0000 N   0  0  0  0  0  0  0  0  0  0  0  0
    3.8971    0.7500    0.0000 C   0  0  0  0  0  0  0  0  0  0  0  0
    5.1962   -1.5000    0.0000 C   0  0  0  0  0  0  0  0  0  0  0  0
    6.4952   -2.2500    0.0000 C   0  0  0  0  0  0  0  0  0  0  0  0
    6.4952   -3.7500    0.0000 C   0  0  0  0  0  0  0  0  0  0  0  0
    7.7942   -4.5000    0.0000 C   0  0  0  0  0  0  0  0  0  0  0  0
    5.1962   -4.5000    0.0000 C   0  0  0  0  0  0  0  0  0  0  0  0
    3.8971   -2.2500    0.0000 C   0  0  0  0  0  0  0  0  0  0  0  0
    2.5981   -1.5000    0.0000 O   0  0  0  0  0  0  0  0  0  0  0  0
    3.8971   -3.7500    0.0000 N   0  0  0  0  0  0  0  0  0  0  0  0
    2.5981   -4.5000    0.0000 C   0  0  0  0  0  0  0  0  0  0  0  0
    2.5981   -6.0000    0.0000 C   0  0  0  0  0  0  0  0  0  0  0  0
    1.2990   -6.7500    0.0000 C   0  0  0  0  0  0  0  0  0  0  0  0
   -0.0000   -7.5000    0.0000 C   0  0  0  0  0  0  0  0  0  0  0  0
    1.2990   -3.7500    0.0000 C   0  0  0  0  0  0  0  0  0  0  0  0
    1.2990   -2.2500    0.0000 O   0  0  0  0  0  0  0  0  0  0  0  0
   -0.0000   -4.5000    0.0000 O   0  0  0  0  0  0  0  0  0  0  0  0
  2  1  1  1
  2  3  1  0
  3  4  1  0
  3  5  1  6
  2  6  1  0
  6  7  2  0
  6  8  1  0
  8  9  1  0
  8 10  1  0
 10 11  1  1
 11 12  1  0
 12 13  1  0
 12 14  1  0
 10 15  1  0
 15 16  2  0
 15 17  1  0
 17 18  1  0
 18 19  1  1
 19 20  1  0
 20 21  3  0
 18 22  1  0
 22 23  2  0
 22 24  1  0
M  END
$$$$

     RDKit          2D

 25 24  0  0  0  0  0  0  0  0999 V2000
    2.5981   -6.0000    0.0000 N   0  0  0  0  0  0  0  0  0  0  0  0
    3.8971   -6.7500    0.0000 C   0  0  0  0  0  0  0  0  0  0  0  0
    2.5981   -4.5000    0.0000 C   0  0  0  0  0  0  0  0  0  0  0  0
    1.2990   -3.7500    0.0000 C   0  0  0  0  0  0  0  0  0  0  0  0
   -0.0000   -4.5000    0.0000 O   0  0  0  0  0  0  0  0  0  0  0  0
    1.2990   -2.2500    0.0000 C   0  0  0  0  0  0  0  0  0  0  0  0
    3.8971   -3.7500    0.0000 C   0  0  0  0  0  0  0  0  0  0  0  0
    5.1962   -4.5000    0.0000 O   0  0  0  0  0  0  0  0  0  0  0  0
    3.8971   -2.2500    0.0000 N   0  0  0  0  0  0  0  0  0  0  0  0
    2.5981   -1.5000    0.0000 C   0  0  0  0  0  0  0  0  0  0  0  0
    5.1962   -1.5000    0.0000 C   0  0  0  0  0  0  0  0  0  0  0  0
    6.4952   -2.2500    0.0000 C   0  0  0  0  0  0  0  0  0  0  0  0
    7.7942   -1.5000    0.0000 C   0  0  0  0  0  0  0  0  0  0  0  0
    9.0933   -2.2500    0.0000 C   0  0  0  0  0  0  0  0  0  0  0  0
    7.7942    0.0000    0.0000 C   0  0  0  0  0  0  0  0  0  0  0  0
    5.1962    0.0000    0.0000 C   0  0  0  0  0  0  0  0  0  0  0  0
    3.8971    0.7500    0.0000 O   0  0  0  0  0  0  0  0  0  0  0  0
    6.4952    0.7500    0.0000 N   0  0  0  0  0  0  0  0  0  0  0  0
    6.4952    2.2500    0.0000 C   0  0  0  0  0  0  0  0  0  0  0  0
    7.7942    3.0000    0.0000 C   0  0  0  0  0  0  0  0  0  0  0  0
    7.7942    4.5000    0.0000 C   0  0  0  0  0  0  0  0  0  0  0  0
    7.7942    6.0000    0.0000 C   0  0  0  0  0  0  0  0  0  0  0  0
    5.1962    3.0000    0.0000 C   0  0  0  0  0  0  0  0  0  0  0  0
    3.8971    2.2500    0.0000 O   0  0  0  0  0  0  0  0  0  0  0  0
    5.1962    4.5000    0.0000 O   0  0  0  0  0  0  0  0  0  0  0  0
  1  2  1  0
  3  1  1  1
  3  4  1  0
  4  5  1  0
  4  6  1  6
  3  7  1  0
  7  8  2  0
  7  9  1  0
  9 10  1  0
  9 11  1  0
 11 12  1  6
 12 13  1  0
 13 14  1  0
 13 15  1  0
 11 16  1  0
 16 17  2  0
 16 18  1  0
 18 19  1  0
 19 20  1  6
 20 21  1  0
 21 22  3  0
 19 23  1  0
 23 24  2  0
 23 25  1  0
M  END
$$$$

     RDKit          2D

 25 24  0  0  0  0  0  0  0  0999 V2000
    2.5981   -6.0000    0.0000 N   0  0  0  0  0  0  0  0  0  0  0  0
    3.8971   -6.7500    0.0000 C   0  0  0  0  0  0  0  0  0  0  0  0
    2.5981   -4.5000    0.0000 C   0  0  0  0  0  0  0  0  0  0  0  0
    1.2990   -3.7500    0.0000 C   0  0  0  0  0  0  0  0  0  0  0  0
   -0.0000   -4.5000    0.0000 O   0  0  0  0  0  0  0  0  0  0  0  0
    1.2990   -2.2500    0.0000 C   0  0  0  0  0  0  0  0  0  0  0  0
    3.8971   -3.7500    0.0000 C   0  0  0  0  0  0  0  0  0  0  0  0
    5.1962   -4.5000    0.0000 O   0  0  0  0  0  0  0  0  0  0  0  0
    3.8971   -2.2500    0.0000 N   0  0  0  0  0  0  0  0  0  0  0  0
    2.5981   -1.5000    0.0000 C   0  0  0  0  0  0  0  0  0  0  0  0
    5.1962   -1.5000    0.0000 C   0  0  0  0  0  0  0  0  0  0  0  0
    6.4952   -2.2500    0.0000 C   0  0  0  0  0  0  0  0  0  0  0  0
    7.7942   -1.5000    0.0000 C   0  0  0  0  0  0  0  0  0  0  0  0
    9.0933   -2.2500    0.0000 C   0  0  0  0  0  0  0  0  0  0  0  0
    7.7942    0.0000    0.0000 C   0  0  0  0  0  0  0  0  0  0  0  0
    5.1962    0.0000    0.0000 C   0  0  0  0  0  0  0  0  0  0  0  0
    3.8971    0.7500    0.0000 O   0  0  0  0  0  0  0  0  0  0  0  0
    6.4952    0.7500    0.0000 N   0  0  0  0  0  0  0  0  0  0  0  0
    6.4952    2.2500    0.0000 C   0  0  0  0  0  0  0  0  0  0  0  0
    7.7942    3.0000    0.0000 C   0  0  0  0  0  0  0  0  0  0  0  0
    7.7942    4.5000    0.0000 C   0  0  0  0  0  0  0  0  0  0  0  0
    7.7942    6.0000    0.0000 C   0  0  0  0  0  0  0  0  0  0  0  0
    5.1962    3.0000    0.0000 C   0  0  0  0  0  0  0  0  0  0  0  0
    3.8971    2.2500    0.0000 O   0  0  0  0  0  0  0  0  0  0  0  0
    5.1962    4.5000    0.0000 O   0  0  0  0  0  0  0  0  0  0  0  0
  1  2  1  0
  3  1  1  6
  3  4  1  0
  4  5  1  0
  4  6  1  6
  3  7  1  0
  7  8  2  0
  7  9  1  0
  9 10  1  0
  9 11  1  0
 11 12  1  6
 12 13  1  0
 13 14  1  0
 13 15  1  0
 11 16  1  0
 16 17  2  0
 16 18  1  0
 18 19  1  0
 19 20  1  6
 20 21  1  0
 21 22  3  0
 19 23  1  0
 23 24  2  0
 23 25  1  0
M  END
$$$$

     RDKit          2D

 25 24  0  0  0  0  0  0  0  0999 V2000
    2.5981    3.0000    0.0000 N   0  0  0  0  0  0  0  0  0  0  0  0
    1.2990    2.2500    0.0000 C   0  0  0  0  0  0  0  0  0  0  0  0
    1.2990    0.7500    0.0000 C   0  0  0  0  0  0  0  0  0  0  0  0
    0.0000    0.0000    0.0000 C   0  0  0  0  0  0  0  0  0  0  0  0
    2.5981   -0.0000    0.0000 C   0  0  0  0  0  0  0  0  0  0  0  0
    2.5981    4.5000    0.0000 C   0  0  0  0  0  0  0  0  0  0  0  0
    3.8971    5.2500    0.0000 C   0  0  0  0  0  0  0  0  0  0  0  0
    5.1962    4.5000    0.0000 O   0  0  0  0  0  0  0  0  0  0  0  0
    3.8971    6.7500    0.0000 N   0  0  0  0  0  0  0  0  0  0  0  0
    5.1962    7.5000    0.0000 C   0  0  0  0  0  0  0  0  0  0  0  0
    2.5981    7.5000    0.0000 C   0  0  0  0  0  0  0  0  0  0  0  0
    2.5981    9.0000    0.0000 C   0  0  0  0  0  0  0  0  0  0  0  0
    1.2990    9.7500    0.0000 C   0  0  0  0  0  0  0  0  0  0  0  0
    1.2990   11.2500    0.0000 C   0  0  0  0  0  0  0  0  0  0  0  0
    0.0000    9.0000    0.0000 C   0  0  0  0  0  0  0  0  0  0  0  0
    1.2990    6.7500    0.0000 C   0  0  0  0  0  0  0  0  0  0  0  0
    1.2990    5.2500    0.0000 O   0  0  0  0  0  0  0  0  0  0  0  0
    0.0000    7.5000    0.0000 N   0  0  0  0  0  0  0  0  0  0  0  0
   -1.2990    6.7500    0.0000 C   0  0  0  0  0  0  0  0  0  0  0  0
   -2.5981    7.5000    0.0000 C   0  0  0  0  0  0  0  0  0  0  0  0
   -3.8971    6.7500    0.0000 C   0  0  0  0  0  0  0  0  0  0  0  0
   -5.1962    6.0000    0.0000 C   0  0  0  0  0  0  0  0  0  0  0  0
   -1.2990    5.2500    0.0000 C   0  0  0  0  0  0  0  0  0  0  0  0
    0.0000    4.5000    0.0000 O   0  0  0  0  0  0  0  0  0  0  0  0
   -2.5981    4.5000    0.0000 O   0  0  0  0  0  0  0  0  0  0  0  0
  1  2  1  0
  2  3  1  0
  3  4  1  0
  3  5  1  0
  1  6  1  0
  6  7  1  0
  7  8  2  0
  7  9  1  0
  9 10  1  0
  9 11  1  0
 11 12  1  6
 12 13  1  0
 13 14  1  0
 13 15  1  0
 11 16  1  0
 16 17  2  0
 16 18  1  0
 18 19  1  0
 19 20  1  6
 20 21  1  0
 21 22  3  0
 19 23  1  0
 23 24  2  0
 23 25  1  0
M  END
$$$$

     RDKit          2D

 28 27  0  0  0  0  0  0  0  0999 V2000
    3.8971    6.7500    0.0000 N   0  0  0  0  0  0  0  0  0  0  0  0
    3.8971    5.2500    0.0000 C   0  0  0  0  0  0  0  0  0  0  0  0
    2.5981    4.5000    0.0000 C   0  0  0  0  0  0  0  0  0  0  0  0
    2.5981    3.0000    0.0000 C   0  0  0  0  0  0  0  0  0  0  0  0
    1.2990    2.2500    0.0000 O   0  0  0  0  0  0  0  0  0  0  0  0
    1.2990    0.7500    0.0000 C   0  0  0  0  0  0  0  0  0  0  0  0
    0.0000    0.0000    0.0000 C   0  0  0  0  0  0  0  0  0  0  0  0
    2.5981   -0.0000    0.0000 C   0  0  0  0  0  0  0  0  0  0  0  0
    5.1962    7.5000    0.0000 C   0  0  0  0  0  0  0  0  0  0  0  0
    5.1962    9.0000    0.0000 C   0  0  0  0  0  0  0  0  0  0  0  0
    3.8971    9.7500    0.0000 O   0  0  0  0  0  0  0  0  0  0  0  0
    6.4952    9.7500    0.0000 N   0  0  0  0  0  0  0  0  0  0  0  0
    6.4952   11.2500    0.0000 C   0  0  0  0  0  0  0  0  0  0  0  0
    7.7942    9.0000    0.0000 C   0  0  0  0  0  0  0  0  0  0  0  0
    9.0933    9.7500    0.0000 C   0  0  0  0  0  0  0  0  0  0  0  0
   10.3923    9.0000    0.0000 C   0  0  0  0  0  0  0  0  0  0  0  0
   11.6913    9.7500    0.0000 C   0  0  0  0  0  0  0  0  0  0  0  0
   10.3923    7.5000    0.0000 C   0  0  0  0  0  0  0  0  0  0  0  0
    7.7942    7.5000    0.0000 C   0  0  0  0  0  0  0  0  0  0  0  0
    6.4952    6.7500    0.0000 O   0  0  0  0  0  0  0  0  0  0  0  0
    9.0933    6.7500    0.0000 N   0  0  0  0  0  0  0  0  0  0  0  0
    9.0933    5.2500    0.0000 C   0  0  0  0  0  0  0  0  0  0  0  0
   10.3923    4.5000    0.0000 C   0  0  0  0  0  0  0  0  0  0  0  0
   10.3923    3.0000    0.0000 C   0  0  0  0  0  0  0  0  0  0  0  0
   10.3923    1.5000    0.0000 C   0  0  0  0  0  0  0  0  0  0  0  0
    7.7942    4.5000    0.0000 C   0  0  0  0  0  0  0  0  0  0  0  0
    6.4952    5.2500    0.0000 O   0  0  0  0  0  0  0  0  0  0  0  0
    7.7942    3.0000    0.0000 O   0  0  0  0  0  0  0  0  0  0  0  0
  1  2  1  0
  2  3  1  0
  3  4  1  0
  4  5  1  0
  5  6  1  0
  6  7  1  0
  6  8  1  0
  1  9  1  0
  9 10  1  0
 10 11  2  0
 10 12  1  0
 12 13  1  0
 12 14  1  0
 14 15  1  1
 15 16  1  0
 16 17  1  0
 16 18  1  0
 14 19  1  0
 19 20  2  0
 19 21  1  0
 21 22  1  0
 22 23  1  1
 23 24  1  0
 24 25  3  0
 22 26  1  0
 26 27  2  0
 26 28  1  0
M  END
$$$$

     RDKit          2D

 30 30  0  0  0  0  0  0  0  0999 V2000
    6.0000   -2.5981    0.0000 N   0  0  0  0  0  0  0  0  0  0  0  0
    5.2500   -1.2990    0.0000 C   0  0  0  0  0  0  0  0  0  0  0  0
    3.7500   -1.2990    0.0000 C   0  0  0  0  0  0  0  0  0  0  0  0
    3.0000    0.0000    0.0000 O   0  0  0  0  0  0  0  0  0  0  0  0
    1.5000    0.0000    0.0000 C   0  0  0  0  0  0  0  0  0  0  0  0
    0.7500   -1.2990    0.0000 C   0  0  0  0  0  0  0  0  0  0  0  0
   -0.7500   -1.2990    0.0000 C   0  0  0  0  0  0  0  0  0  0  0  0
   -1.5000    0.0000    0.0000 C   0  0  0  0  0  0  0  0  0  0  0  0
   -0.7500    1.2990    0.0000 C   0  0  0  0  0  0  0  0  0  0  0  0
    0.7500    1.2990    0.0000 C   0  0  0  0  0  0  0  0  0  0  0  0
    7.5000   -2.5981    0.0000 C   0  0  0  0  0  0  0  0  0  0  0  0
    8.2500   -3.8971    0.0000 C   0  0  0  0  0  0  0  0  0  0  0  0
    7.5000   -5.1962    0.0000 O   0  0  0  0  0  0  0  0  0  0  0  0
    9.7500   -3.8971    0.0000 N   0  0  0  0  0  0  0  0  0  0  0  0
   10.5000   -5.1962    0.0000 C   0  0  0  0  0  0  0  0  0  0  0  0
   10.5000   -2.5981    0.0000 C   0  0  0  0  0  0  0  0  0  0  0  0
   12.0000   -2.5981    0.0000 C   0  0  0  0  0  0  0  0  0  0  0  0
   12.7500   -1.2990    0.0000 C   0  0  0  0  0  0  0  0  0  0  0  0
   14.2500   -1.2990    0.0000 C   0  0  0  0  0  0  0  0  0  0  0  0
   12.0000    0.0000    0.0000 C   0  0  0  0  0  0  0  0  0  0  0  0
    9.7500   -1.2990    0.0000 C   0  0  0  0  0  0  0  0  0  0  0  0
    8.2500   -1.2990    0.0000 O   0  0  0  0  0  0  0  0  0  0  0  0
   10.5000    0.0000    0.0000 N   0  0  0  0  0  0  0  0  0  0  0  0
    9.7500    1.2990    0.0000 C   0  0  0  0  0  0  0  0  0  0  0  0
   10.5000    2.5981    0.0000 C   0  0  0  0  0  0  0  0  0  0  0  0
    9.7500    3.8971    0.0000 C   0  0  0  0  0  0  0  0  0  0  0  0
    9.0000    5.1962    0.0000 C   0  0  0  0  0  0  0  0  0  0  0  0
    8.2500    1.2990    0.0000 C   0  0  0  0  0  0  0  0  0  0  0  0
    7.5000    0.0000    0.0000 O   0  0  0  0  0  0  0  0  0  0  0  0
    7.5000    2.5981    0.0000 O   0  0  0  0  0  0  0  0  0  0  0  0
  1  2  1  0
  2  3  1  0
  3  4  1  0
  4  5  1  0
  5  6  2  0
  6  7  1  0
  7  8  2  0
  8  9  1  0
  9 10  2  0
  1 11  1  0
 11 12  1  0
 12 13  2  0
 12 14  1  0
 14 15  1  0
 14 16  1  0
 16 17  1  6
 17 18  1  0
 18 19  1  0
 18 20  1  0
 16 21  1  0
 21 22  2  0
 21 23  1  0
 23 24  1  0
 24 25  1  6
 25 26  1  0
 26 27  3  0
 24 28  1  0
 28 29  2  0
 28 30  1  0
 10  5  1  0
M  END
$$$$

     RDKit          2D

 33 33  0  0  0  0  0  0  0  0999 V2000
    5.2500   -1.2990    0.0000 N   0  0  0  0  0  0  0  0  0  0  0  0
    3.7500   -1.2990    0.0000 C   0  0  0  0  0  0  0  0  0  0  0  0
    3.0000    0.0000    0.0000 C   0  0  0  0  0  0  0  0  0  0  0  0
    1.5000    0.0000    0.0000 C   0  0  0  0  0  0  0  0  0  0  0  0
    0.7500   -1.2990    0.0000 C   0  0  0  0  0  0  0  0  0  0  0  0
   -0.7500   -1.2990    0.0000 C   0  0  0  0  0  0  0  0  0  0  0  0
   -1.5000    0.0000    0.0000 C   0  0  0  0  0  0  0  0  0  0  0  0
   -0.7500    1.2990    0.0000 C   0  0  0  0  0  0  0  0  0  0  0  0
   -1.5000    2.5981    0.0000 O   0  0  0  0  0  0  0  0  0  0  0  0
   -0.7500    3.8971    0.0000 C   0  0  0  0  0  0  0  0  0  0  0  0
    0.7500    1.2990    0.0000 C   0  0  0  0  0  0  0  0  0  0  0  0
   -3.0000    0.0000    0.0000 O   0  0  0  0  0  0  0  0  0  0  0  0
   -3.7500    1.2990    0.0000 C   0  0  0  0  0  0  0  0  0  0  0  0
    6.0000   -2.5981    0.0000 C   0  0  0  0  0  0  0  0  0  0  0  0
    7.5000   -2.5981    0.0000 C   0  0  0  0  0  0  0  0  0  0  0  0
    8.2500   -1.2990    0.0000 O   0  0  0  0  0  0  0  0  0  0  0  0
    8.2500   -3.8971    0.0000 N   0  0  0  0  0  0  0  0  0  0  0  0
    9.7500   -3.8971    0.0000 C   0  0  0  0  0  0  0  0  0  0  0  0
    7.5000   -5.1962    0.0000 C   0  0  0  0  0  0  0  0  0  0  0  0
    8.2500   -6.4952    0.0000 C   0  0  0  0  0  0  0  0  0  0  0  0
    7.5000   -7.7942    0.0000 C   0  0  0  0  0  0  0  0  0  0  0  0
    8.2500   -9.0933    0.0000 C   0  0  0  0  0  0  0  0  0  0  0  0
    6.0000   -7.7942    0.0000 C   0  0  0  0  0  0  0  0  0  0  0  0
    6.0000   -5.1962    0.0000 C   0  0  0  0  0  0  0  0  0  0  0  0
    5.2500   -3.8971    0.0000 O   0  0  0  0  0  0  0  0  0  0  0  0
    5.2500   -6.4952    0.0000 N   0  0  0  0  0  0  0  0  0  0  0  0
    3.7500   -6.4952    0.0000 C   0  0  0  0  0  0  0  0  0  0  0  0
    3.0000   -7.7942    0.0000 C   0  0  0  0  0  0  0  0  0  0  0  0
    1.5000   -7.7942    0.0000 C   0  0  0  0  0  0  0  0  0  0  0  0
    0.0000   -7.7942    0.0000 C   0  0  0  0  0  0  0  0  0  0  0  0
    3.0000   -5.1962    0.0000 C   0  0  0  0  0  0  0  0  0  0  0  0
    3.7500   -3.8971    0.0000 O   0  0  0  0  0  0  0  0  0  0  0  0
    1.5000   -5.1962    0.0000 O   0  0  0  0  0  0  0  0  0  0  0  0
  1  2  1  0
  2  3  1  0
  3  4  1  0
  4  5  2  0
  5  6  1  0
  6  7  2  0
  7  8  1  0
  8  9  1  0
  9 10  1  0
  8 11  2  0
  7 12  1  0
 12 13  1  0
  1 14  1  0
 14 15  1  0
 15 16  2  0
 15 17  1  0
 17 18  1  0
 17 19  1  0
 19 20  1  1
 20 21  1  0
 21 22  1  0
 21 23  1  0
 19 24  1  0
 24 25  2  0
 24 26  1  0
 26 27  1  0
 27 28  1  1
 28 29  1  0
 29 30  3  0
 27 31  1  0
 31 32  2  0
 31 33  1  0
 11  4  1  0
M  END
$$$$

     RDKit          2D

 40 40  0  0  0  0  0  0  0  0999 V2000
    1.2760    5.1962    0.0000 N   0  0  0  0  0  0  0  0  0  0  0  0
    2.7760    5.1962    0.0000 C   0  0  0  0  0  0  0  0  0  0  0  0
    3.5260    6.4952    0.0000 C   0  0  0  0  0  0  0  0  0  0  0  0
    2.7760    7.7942    0.0000 C   0  0  0  0  0  0  0  0  0  0  0  0
    3.5260    9.0933    0.0000 C   0  0  0  0  0  0  0  0  0  0  0  0
    1.2760    7.7942    0.0000 C   0  0  0  0  0  0  0  0  0  0  0  0
    3.5260    3.8971    0.0000 C   0  0  0  0  0  0  0  0  0  0  0  0
    5.0260    3.8971    0.0000 O   0  0  0  0  0  0  0  0  0  0  0  0
    2.7760    2.5981    0.0000 N   0  0  0  0  0  0  0  0  0  0  0  0
    3.5260    1.2990    0.0000 C   0  0  0  0  0  0  0  0  0  0  0  0
    5.0260    1.2990    0.0000 C   0  0  0  0  0  0  0  0  0  0  0  0
    5.7760    0.0000    0.0000 C   0  0  0  0  0  0  0  0  0  0  0  0
    7.2760    0.0000    0.0000 C   0  0  0  0  0  0  0  0  0  0  0  0
    5.0260   -1.2990    0.0000 C   0  0  0  0  0  0  0  0  0  0  0  0
    2.7760    0.0000    0.0000 C   0  0  0  0  0  0  0  0  0  0  0  0
    3.5260   -1.2990    0.0000 O   0  0  0  0  0  0  0  0  0  0  0  0
    1.2760    0.0000    0.0000 N   0  0  0  0  0  0  0  0  0  0  0  0
    0.3943    1.2135    0.0000 C   0  0  0  0  0  0  0  0  0  0  0  0
   -1.0323    0.7500    0.0000 C   0  0  0  0  0  0  0  0  0  0  0  0
   -1.0323   -0.7500    0.0000 C   0  0  0  0  0  0  0  0  0  0  0  0
    0.3943   -1.2135    0.0000 C   0  0  0  0  0  0  0  0  0  0  0  0
    0.8578   -2.6401    0.0000 C   0  0  0  0  0  0  0  0  0  0  0  0
    2.3250   -2.9520    0.0000 O   0  0  0  0  0  0  0  0  0  0  0  0
   -0.1459   -3.7548    0.0000 N   0  0  0  0  0  0  0  0  0  0  0  0
    0.3177   -5.1814    0.0000 C   0  0  0  0  0  0  0  0  0  0  0  0
   -1.6131   -3.4430    0.0000 C   0  0  0  0  0  0  0  0  0  0  0  0
   -2.0766   -2.0164    0.0000 C   0  0  0  0  0  0  0  0  0  0  0  0
   -3.5438   -1.7045    0.0000 C   0  0  0  0  0  0  0  0  0  0  0  0
   -4.0074   -0.2779    0.0000 C   0  0  0  0  0  0  0  0  0  0  0  0
   -4.5475   -2.8192    0.0000 C   0  0  0  0  0  0  0  0  0  0  0  0
   -2.6168   -4.5577    0.0000 C   0  0  0  0  0  0  0  0  0  0  0  0
   -2.1533   -5.9843    0.0000 O   0  0  0  0  0  0  0  0  0  0  0  0
   -4.0840   -4.2458    0.0000 N   0  0  0  0  0  0  0  0  0  0  0  0
   -5.0877   -5.3605    0.0000 C   0  0  0  0  0  0  0  0  0  0  0  0
   -6.5549   -5.0487    0.0000 C   0  0  0  0  0  0  0  0  0  0  0  0
   -7.5586   -6.1634    0.0000 C   0  0  0  0  0  0  0  0  0  0  0  0
   -8.5623   -7.2781    0.0000 C   0  0  0  0  0  0  0  0  0  0  0  0
   -4.6242   -6.7871    0.0000 C   0  0  0  0  0  0  0  0  0  0  0  0
   -3.1570   -7.0990    0.0000 O   0  0  0  0  0  0  0  0  0  0  0  0
   -5.6279   -7.9018    0.0000 O   0  0  0  0  0  0  0  0  0  0  0  0
  2  1  1  1
  2  3  1  0
  3  4  1  0
  4  5  1  0
  4  6  1  0
  2  7  1  0
  7  8  2  0
  7  9  1  0
  9 10  1  0
 10 11  1  1
 11 12  1  0
 12 13  1  0
 12 14  1  0
 10 15  1  0
 15 16  2  0
 15 17  1  0
 17 18  1  0
 18 19  1  0
 19 20  1  0
 20 21  1  0
 21 22  1  6
 22 23  2  0
 22 24  1  0
 24 25  1  0
 24 26  1  0
 26 27  1  6
 27 28  1  0
 28 29  1  0
 28 30  1  0
 26 31  1  0
 31 32  2  0
 31 33  1  0
 33 34  1  0
 34 35  1  6
 35 36  1  0
 36 37  3  0
 34 38  1  0
 38 39  2  0
 38 40  1  0
 21 17  1  0
M  END
$$$$

     RDKit          2D

 40 40  0  0  0  0  0  0  0  0999 V2000
    1.2760    5.1962    0.0000 N   0  0  0  0  0  0  0  0  0  0  0  0
    2.7760    5.1962    0.0000 C   0  0  0  0  0  0  0  0  0  0  0  0
    3.5260    6.4952    0.0000 C   0  0  0  0  0  0  0  0  0  0  0  0
    2.7760    7.7942    0.0000 C   0  0  0  0  0  0  0  0  0  0  0  0
    3.5260    9.0933    0.0000 C   0  0  0  0  0  0  0  0  0  0  0  0
    1.2760    7.7942    0.0000 C   0  0  0  0  0  0  0  0  0  0  0  0
    3.5260    3.8971    0.0000 C   0  0  0  0  0  0  0  0  0  0  0  0
    5.0260    3.8971    0.0000 O   0  0  0  0  0  0  0  0  0  0  0  0
    2.7760    2.5981    0.0000 N   0  0  0  0  0  0  0  0  0  0  0  0
    3.5260    1.2990    0.0000 C   0  0  0  0  0  0  0  0  0  0  0  0
    5.0260    1.2990    0.0000 C   0  0  0  0  0  0  0  0  0  0  0  0
    5.7760    0.0000    0.0000 C   0  0  0  0  0  0  0  0  0  0  0  0
    7.2760    0.0000    0.0000 C   0  0  0  0  0  0  0  0  0  0  0  0
    5.0260   -1.2990    0.0000 C   0  0  0  0  0  0  0  0  0  0  0  0
    2.7760    0.0000    0.0000 C   0  0  0  0  0  0  0  0  0  0  0  0
    3.5260   -1.2990    0.0000 O   0  0  0  0  0  0  0  0  0  0  0  0
    1.2760    0.0000    0.0000 N   0  0  0  0  0  0  0  0  0  0  0  0
    0.3943    1.2135    0.0000 C   0  0  0  0  0  0  0  0  0  0  0  0
   -1.0323    0.7500    0.0000 C   0  0  0  0  0  0  0  0  0  0  0  0
   -1.0323   -0.7500    0.0000 C   0  0  0  0  0  0  0  0  0  0  0  0
    0.3943   -1.2135    0.0000 C   0  0  0  0  0  0  0  0  0  0  0  0
    0.8578   -2.6401    0.0000 C   0  0  0  0  0  0  0  0  0  0  0  0
    2.3250   -2.9520    0.0000 O   0  0  0  0  0  0  0  0  0  0  0  0
   -0.1459   -3.7548    0.0000 N   0  0  0  0  0  0  0  0  0  0  0  0
    0.3177   -5.1814    0.0000 C   0  0  0  0  0  0  0  0  0  0  0  0
   -1.6131   -3.4430    0.0000 C   0  0  0  0  0  0  0  0  0  0  0  0
   -2.0766   -2.0164    0.0000 C   0  0  0  0  0  0  0  0  0  0  0  0
   -3.5438   -1.7045    0.0000 C   0  0  0  0  0  0  0  0  0  0  0  0
   -4.0074   -0.2779    0.0000 C   0  0  0  0  0  0  0  0  0  0  0  0
   -4.5475   -2.8192    0.0000 C   0  0  0  0  0  0  0  0  0  0  0  0
   -2.6168   -4.5577    0.0000 C   0  0  0  0  0  0  0  0  0  0  0  0
   -2.1533   -5.9843    0.0000 O   0  0  0  0  0  0  0  0  0  0  0  0
   -4.0840   -4.2458    0.0000 N   0  0  0  0  0  0  0  0  0  0  0  0
   -5.0877   -5.3605    0.0000 C   0  0  0  0  0  0  0  0  0  0  0  0
   -6.5549   -5.0487    0.0000 C   0  0  0  0  0  0  0  0  0  0  0  0
   -7.5586   -6.1634    0.0000 C   0  0  0  0  0  0  0  0  0  0  0  0
   -8.5623   -7.2781    0.0000 C   0  0  0  0  0  0  0  0  0  0  0  0
   -4.6242   -6.7871    0.0000 C   0  0  0  0  0  0  0  0  0  0  0  0
   -3.1570   -7.0990    0.0000 O   0  0  0  0  0  0  0  0  0  0  0  0
   -5.6279   -7.9018    0.0000 O   0  0  0  0  0  0  0  0  0  0  0  0
  2  1  1  6
  2  3  1  0
  3  4  1  0
  4  5  1  0
  4  6  1  0
  2  7  1  0
  7  8  2  0
  7  9  1  0
  9 10  1  0
 10 11  1  1
 11 12  1  0
 12 13  1  0
 12 14  1  0
 10 15  1  0
 15 16  2  0
 15 17  1  0
 17 18  1  0
 18 19  1  0
 19 20  1  0
 20 21  1  0
 21 22  1  6
 22 23  2  0
 22 24  1  0
 24 25  1  0
 24 26  1  0
 26 27  1  6
 27 28  1  0
 28 29  1  0
 28 30  1  0
 26 31  1  0
 31 32  2  0
 31 33  1  0
 33 34  1  0
 34 35  1  6
 35 36  1  0
 36 37  3  0
 34 38  1  0
 38 39  2  0
 38 40  1  0
 21 17  1  0
M  END
$$$$

     RDKit          2D

 41 41  0  0  0  0  0  0  0  0999 V2000
    1.2760    5.1962    0.0000 N   0  0  0  0  0  0  0  0  0  0  0  0
    0.5260    6.4952    0.0000 C   0  0  0  0  0  0  0  0  0  0  0  0
    2.7760    5.1962    0.0000 C   0  0  0  0  0  0  0  0  0  0  0  0
    3.5260    6.4952    0.0000 C   0  0  0  0  0  0  0  0  0  0  0  0
    2.7760    7.7942    0.0000 C   0  0  0  0  0  0  0  0  0  0  0  0
    3.5260    9.0933    0.0000 C   0  0  0  0  0  0  0  0  0  0  0  0
    1.2760    7.7942    0.0000 C   0  0  0  0  0  0  0  0  0  0  0  0
    3.5260    3.8971    0.0000 C   0  0  0  0  0  0  0  0  0  0  0  0
    5.0260    3.8971    0.0000 O   0  0  0  0  0  0  0  0  0  0  0  0
    2.7760    2.5981    0.0000 N   0  0  0  0  0  0  0  0  0  0  0  0
    3.5260    1.2990    0.0000 C   0  0  0  0  0  0  0  0  0  0  0  0
    5.0260    1.2990    0.0000 C   0  0  0  0  0  0  0  0  0  0  0  0
    5.7760    0.0000    0.0000 C   0  0  0  0  0  0  0  0  0  0  0  0
    7.2760    0.0000    0.0000 C   0  0  0  0  0  0  0  0  0  0  0  0
    5.0260   -1.2990    0.0000 C   0  0  0  0  0  0  0  0  0  0  0  0
    2.7760    0.0000    0.0000 C   0  0  0  0  0  0  0  0  0  0  0  0
    3.5260   -1.2990    0.0000 O   0  0  0  0  0  0  0  0  0  0  0  0
    1.2760    0.0000    0.0000 N   0  0  0  0  0  0  0  0  0  0  0  0
    0.3943    1.2135    0.0000 C   0  0  0  0  0  0  0  0  0  0  0  0
   -1.0323    0.7500    0.0000 C   0  0  0  0  0  0  0  0  0  0  0  0
   -1.0323   -0.7500    0.0000 C   0  0  0  0  0  0  0  0  0  0  0  0
    0.3943   -1.2135    0.0000 C   0  0  0  0  0  0  0  0  0  0  0  0
    0.8578   -2.6401    0.0000 C   0  0  0  0  0  0  0  0  0  0  0  0
    2.3250   -2.9520    0.0000 O   0  0  0  0  0  0  0  0  0  0  0  0
   -0.1459   -3.7548    0.0000 N   0  0  0  0  0  0  0  0  0  0  0  0
    0.3177   -5.1814    0.0000 C   0  0  0  0  0  0  0  0  0  0  0  0
   -1.6131   -3.4430    0.0000 C   0  0  0  0  0  0  0  0  0  0  0  0
   -2.0766   -2.0164    0.0000 C   0  0  0  0  0  0  0  0  0  0  0  0
   -3.5438   -1.7045    0.0000 C   0  0  0  0  0  0  0  0  0  0  0  0
   -4.0074   -0.2779    0.0000 C   0  0  0  0  0  0  0  0  0  0  0  0
   -4.5475   -2.8192    0.0000 C   0  0  0  0  0  0  0  0  0  0  0  0
   -2.6168   -4.5577    0.0000 C   0  0  0  0  0  0  0  0  0  0  0  0
   -2.1533   -5.9843    0.0000 O   0  0  0  0  0  0  0  0  0  0  0  0
   -4.0840   -4.2458    0.0000 N   0  0  0  0  0  0  0  0  0  0  0  0
   -5.0877   -5.3605    0.0000 C   0  0  0  0  0  0  0  0  0  0  0  0
   -6.5549   -5.0487    0.0000 C   0  0  0  0  0  0  0  0  0  0  0  0
   -7.5586   -6.1634    0.0000 C   0  0  0  0  0  0  0  0  0  0  0  0
   -8.5623   -7.2781    0.0000 C   0  0  0  0  0  0  0  0  0  0  0  0
   -4.6242   -6.7871    0.0000 C   0  0  0  0  0  0  0  0  0  0  0  0
   -3.1570   -7.0990    0.0000 O   0  0  0  0  0  0  0  0  0  0  0  0
   -5.6279   -7.9018    0.0000 O   0  0  0  0  0  0  0  0  0  0  0  0
  1  2  1  0
  1  3  1  0
  3  4  1  1
  4  5  1  0
  5  6  1  0
  5  7  1  0
  3  8  1  0
  8  9  2  0
  8 10  1  0
 10 11  1  0
 11 12  1  1
 12 13  1  0
 13 14  1  0
 13 15  1  0
 11 16  1  0
 16 17  2  0
 16 18  1  0
 18 19  1  0
 19 20  1  0
 20 21  1  0
 21 22  1  0
 22 23  1  6
 23 24  2  0
 23 25  1  0
 25 26  1  0
 25 27  1  0
 27 28  1  6
 28 29  1  0
 29 30  1  0
 29 31  1  0
 27 32  1  0
 32 33  2  0
 32 34  1  0
 34 35  1  0
 35 36  1  6
 36 37  1  0
 37 38  3  0
 35 39  1  0
 39 40  2  0
 39 41  1  0
 22 18  1  0
M  END
$$$$

     RDKit          2D

 41 41  0  0  0  0  0  0  0  0999 V2000
    1.2760    5.1962    0.0000 N   0  0  0  0  0  0  0  0  0  0  0  0
    0.5260    6.4952    0.0000 C   0  0  0  0  0  0  0  0  0  0  0  0
    2.7760    5.1962    0.0000 C   0  0  0  0  0  0  0  0  0  0  0  0
    3.5260    6.4952    0.0000 C   0  0  0  0  0  0  0  0  0  0  0  0
    2.7760    7.7942    0.0000 C   0  0  0  0  0  0  0  0  0  0  0  0
    3.5260    9.0933    0.0000 C   0  0  0  0  0  0  0  0  0  0  0  0
    1.2760    7.7942    0.0000 C   0  0  0  0  0  0  0  0  0  0  0  0
    3.5260    3.8971    0.0000 C   0  0  0  0  0  0  0  0  0  0  0  0
    5.0260    3.8971    0.0000 O   0  0  0  0  0  0  0  0  0  0  0  0
    2.7760    2.5981    0.0000 N   0  0  0  0  0  0  0  0  0  0  0  0
    3.5260    1.2990    0.0000 C   0  0  0  0  0  0  0  0  0  0  0  0
    5.0260    1.2990    0.0000 C   0  0  0  0  0  0  0  0  0  0  0  0
    5.7760    0.0000    0.0000 C   0  0  0  0  0  0  0  0  0  0  0  0
    7.2760    0.0000    0.0000 C   0  0  0  0  0  0  0  0  0  0  0  0
    5.0260   -1.2990    0.0000 C   0  0  0  0  0  0  0  0  0  0  0  0
    2.7760    0.0000    0.0000 C   0  0  0  0  0  0  0  0  0  0  0  0
    3.5260   -1.2990    0.0000 O   0  0  0  0  0  0  0  0  0  0  0  0
    1.2760    0.0000    0.0000 N   0  0  0  0  0  0  0  0  0  0  0  0
    0.3943    1.2135    0.0000 C   0  0  0  0  0  0  0  0  0  0  0  0
   -1.0323    0.7500    0.0000 C   0  0  0  0  0  0  0  0  0  0  0  0
   -1.0323   -0.7500    0.0000 C   0  0  0  0  0  0  0  0  0  0  0  0
    0.3943   -1.2135    0.0000 C   0  0  0  0  0  0  0  0  0  0  0  0
    0.8578   -2.6401    0.0000 C   0  0  0  0  0  0  0  0  0  0  0  0
    2.3250   -2.9520    0.0000 O   0  0  0  0  0  0  0  0  0  0  0  0
   -0.1459   -3.7548    0.0000 N   0  0  0  0  0  0  0  0  0  0  0  0
    0.3177   -5.1814    0.0000 C   0  0  0  0  0  0  0  0  0  0  0  0
   -1.6131   -3.4430    0.0000 C   0  0  0  0  0  0  0  0  0  0  0  0
   -2.0766   -2.0164    0.0000 C   0  0  0  0  0  0  0  0  0  0  0  0
   -3.5438   -1.7045    0.0000 C   0  0  0  0  0  0  0  0  0  0  0  0
   -4.0074   -0.2779    0.0000 C   0  0  0  0  0  0  0  0  0  0  0  0
   -4.5475   -2.8192    0.0000 C   0  0  0  0  0  0  0  0  0  0  0  0
   -2.6168   -4.5577    0.0000 C   0  0  0  0  0  0  0  0  0  0  0  0
   -2.1533   -5.9843    0.0000 O   0  0  0  0  0  0  0  0  0  0  0  0
   -4.0840   -4.2458    0.0000 N   0  0  0  0  0  0  0  0  0  0  0  0
   -5.0877   -5.3605    0.0000 C   0  0  0  0  0  0  0  0  0  0  0  0
   -6.5549   -5.0487    0.0000 C   0  0  0  0  0  0  0  0  0  0  0  0
   -7.5586   -6.1634    0.0000 C   0  0  0  0  0  0  0  0  0  0  0  0
   -8.5623   -7.2781    0.0000 C   0  0  0  0  0  0  0  0  0  0  0  0
   -4.6242   -6.7871    0.0000 C   0  0  0  0  0  0  0  0  0  0  0  0
   -3.1570   -7.0990    0.0000 O   0  0  0  0  0  0  0  0  0  0  0  0
   -5.6279   -7.9018    0.0000 O   0  0  0  0  0  0  0  0  0  0  0  0
  1  2  1  0
  1  3  1  0
  3  4  1  6
  4  5  1  0
  5  6  1  0
  5  7  1  0
  3  8  1  0
  8  9  2  0
  8 10  1  0
 10 11  1  0
 11 12  1  1
 12 13  1  0
 13 14  1  0
 13 15  1  0
 11 16  1  0
 16 17  2  0
 16 18  1  0
 18 19  1  0
 19 20  1  0
 20 21  1  0
 21 22  1  0
 22 23  1  6
 23 24  2  0
 23 25  1  0
 25 26  1  0
 25 27  1  0
 27 28  1  6
 28 29  1  0
 29 30  1  0
 29 31  1  0
 27 32  1  0
 32 33  2  0
 32 34  1  0
 34 35  1  0
 35 36  1  6
 36 37  1  0
 37 38  3  0
 35 39  1  0
 39 40  2  0
 39 41  1  0
 22 18  1  0
M  END
$$$$

     RDKit          2D

 40 40  0  0  0  0  0  0  0  0999 V2000
    1.2760    5.1962    0.0000 N   0  0  0  0  0  0  0  0  0  0  0  0
    2.7760    5.1962    0.0000 C   0  0  0  0  0  0  0  0  0  0  0  0
    3.5260    6.4952    0.0000 C   0  0  0  0  0  0  0  0  0  0  0  0
    2.7760    7.7942    0.0000 C   0  0  0  0  0  0  0  0  0  0  0  0
    3.5260    9.0933    0.0000 C   0  0  0  0  0  0  0  0  0  0  0  0
    1.2760    7.7942    0.0000 C   0  0  0  0  0  0  0  0  0  0  0  0
    3.5260    3.8971    0.0000 C   0  0  0  0  0  0  0  0  0  0  0  0
    5.0260    3.8971    0.0000 O   0  0  0  0  0  0  0  0  0  0  0  0
    2.7760    2.5981    0.0000 N   0  0  0  0  0  0  0  0  0  0  0  0
    3.5260    1.2990    0.0000 C   0  0  0  0  0  0  0  0  0  0  0  0
    5.0260    1.2990    0.0000 C   0  0  0  0  0  0  0  0  0  0  0  0
    5.7760    0.0000    0.0000 C   0  0  0  0  0  0  0  0  0  0  0  0
    7.2760    0.0000    0.0000 C   0  0  0  0  0  0  0  0  0  0  0  0
    5.0260   -1.2990    0.0000 C   0  0  0  0  0  0  0  0  0  0  0  0
    2.7760    0.0000    0.0000 C   0  0  0  0  0  0  0  0  0  0  0  0
    3.5260   -1.2990    0.0000 O   0  0  0  0  0  0  0  0  0  0  0  0
    1.2760    0.0000    0.0000 N   0  0  0  0  0  0  0  0  0  0  0  0
    0.3943    1.2135    0.0000 C   0  0  0  0  0  0  0  0  0  0  0  0
   -1.0323    0.7500    0.0000 C   0  0  0  0  0  0  0  0  0  0  0  0
   -1.0323   -0.7500    0.0000 C   0  0  0  0  0  0  0  0  0  0  0  0
    0.3943   -1.2135    0.0000 C   0  0  0  0  0  0  0  0  0  0  0  0
    0.8578   -2.6401    0.0000 C   0  0  0  0  0  0  0  0  0  0  0  0
    2.3250   -2.9520    0.0000 O   0  0  0  0  0  0  0  0  0  0  0  0
   -0.1459   -3.7548    0.0000 N   0  0  0  0  0  0  0  0  0  0  0  0
    0.3177   -5.1814    0.0000 C   0  0  0  0  0  0  0  0  0  0  0  0
   -1.6131   -3.4430    0.0000 C   0  0  0  0  0  0  0  0  0  0  0  0
   -2.0766   -2.0164    0.0000 C   0  0  0  0  0  0  0  0  0  0  0  0
   -3.5438   -1.7045    0.0000 C   0  0  0  0  0  0  0  0  0  0  0  0
   -4.0074   -0.2779    0.0000 C   0  0  0  0  0  0  0  0  0  0  0  0
   -4.5475   -2.8192    0.0000 C   0  0  0  0  0  0  0  0  0  0  0  0
   -2.6168   -4.5577    0.0000 C   0  0  0  0  0  0  0  0  0  0  0  0
   -2.1533   -5.9843    0.0000 O   0  0  0  0  0  0  0  0  0  0  0  0
   -4.0840   -4.2458    0.0000 N   0  0  0  0  0  0  0  0  0  0  0  0
   -5.0877   -5.3605    0.0000 C   0  0  0  0  0  0  0  0  0  0  0  0
   -6.5549   -5.0487    0.0000 C   0  0  0  0  0  0  0  0  0  0  0  0
   -7.5586   -6.1634    0.0000 C   0  0  0  0  0  0  0  0  0  0  0  0
   -8.5623   -7.2781    0.0000 C   0  0  0  0  0  0  0  0  0  0  0  0
   -4.6242   -6.7871    0.0000 C   0  0  0  0  0  0  0  0  0  0  0  0
   -3.1570   -7.0990    0.0000 O   0  0  0  0  0  0  0  0  0  0  0  0
   -5.6279   -7.9018    0.0000 O   0  0  0  0  0  0  0  0  0  0  0  0
  2  1  1  1
  2  3  1  0
  3  4  1  0
  4  5  1  0
  4  6  1  0
  2  7  1  0
  7  8  2  0
  7  9  1  0
  9 10  1  0
 10 11  1  6
 11 12  1  0
 12 13  1  0
 12 14  1  0
 10 15  1  0
 15 16  2  0
 15 17  1  0
 17 18  1  0
 18 19  1  0
 19 20  1  0
 20 21  1  0
 21 22  1  6
 22 23  2  0
 22 24  1  0
 24 25  1  0
 24 26  1  0
 26 27  1  6
 27 28  1  0
 28 29  1  0
 28 30  1  0
 26 31  1  0
 31 32  2  0
 31 33  1  0
 33 34  1  0
 34 35  1  6
 35 36  1  0
 36 37  3  0
 34 38  1  0
 38 39  2  0
 38 40  1  0
 21 17  1  0
M  END
$$$$

     RDKit          2D

 40 40  0  0  0  0  0  0  0  0999 V2000
    1.2760    5.1962    0.0000 N   0  0  0  0  0  0  0  0  0  0  0  0
    2.7760    5.1962    0.0000 C   0  0  0  0  0  0  0  0  0  0  0  0
    3.5260    6.4952    0.0000 C   0  0  0  0  0  0  0  0  0  0  0  0
    2.7760    7.7942    0.0000 C   0  0  0  0  0  0  0  0  0  0  0  0
    3.5260    9.0933    0.0000 C   0  0  0  0  0  0  0  0  0  0  0  0
    1.2760    7.7942    0.0000 C   0  0  0  0  0  0  0  0  0  0  0  0
    3.5260    3.8971    0.0000 C   0  0  0  0  0  0  0  0  0  0  0  0
    5.0260    3.8971    0.0000 O   0  0  0  0  0  0  0  0  0  0  0  0
    2.7760    2.5981    0.0000 N   0  0  0  0  0  0  0  0  0  0  0  0
    3.5260    1.2990    0.0000 C   0  0  0  0  0  0  0  0  0  0  0  0
    5.0260    1.2990    0.0000 C   0  0  0  0  0  0  0  0  0  0  0  0
    5.7760    0.0000    0.0000 C   0  0  0  0  0  0  0  0  0  0  0  0
    7.2760    0.0000    0.0000 C   0  0  0  0  0  0  0  0  0  0  0  0
    5.0260   -1.2990    0.0000 C   0  0  0  0  0  0  0  0  0  0  0  0
    2.7760    0.0000    0.0000 C   0  0  0  0  0  0  0  0  0  0  0  0
    3.5260   -1.2990    0.0000 O   0  0  0  0  0  0  0  0  0  0  0  0
    1.2760    0.0000    0.0000 N   0  0  0  0  0  0  0  0  0  0  0  0
    0.3943    1.2135    0.0000 C   0  0  0  0  0  0  0  0  0  0  0  0
   -1.0323    0.7500    0.0000 C   0  0  0  0  0  0  0  0  0  0  0  0
   -1.0323   -0.7500    0.0000 C   0  0  0  0  0  0  0  0  0  0  0  0
    0.3943   -1.2135    0.0000 C   0  0  0  0  0  0  0  0  0  0  0  0
    0.8578   -2.6401    0.0000 C   0  0  0  0  0  0  0  0  0  0  0  0
    2.3250   -2.9520    0.0000 O   0  0  0  0  0  0  0  0  0  0  0  0
   -0.1459   -3.7548    0.0000 N   0  0  0  0  0  0  0  0  0  0  0  0
    0.3177   -5.1814    0.0000 C   0  0  0  0  0  0  0  0  0  0  0  0
   -1.6131   -3.4430    0.0000 C   0  0  0  0  0  0  0  0  0  0  0  0
   -2.0766   -2.0164    0.0000 C   0  0  0  0  0  0  0  0  0  0  0  0
   -3.5438   -1.7045    0.0000 C   0  0  0  0  0  0  0  0  0  0  0  0
   -4.0074   -0.2779    0.0000 C   0  0  0  0  0  0  0  0  0  0  0  0
   -4.5475   -2.8192    0.0000 C   0  0  0  0  0  0  0  0  0  0  0  0
   -2.6168   -4.5577    0.0000 C   0  0  0  0  0  0  0  0  0  0  0  0
   -2.1533   -5.9843    0.0000 O   0  0  0  0  0  0  0  0  0  0  0  0
   -4.0840   -4.2458    0.0000 N   0  0  0  0  0  0  0  0  0  0  0  0
   -5.0877   -5.3605    0.0000 C   0  0  0  0  0  0  0  0  0  0  0  0
   -6.5549   -5.0487    0.0000 C   0  0  0  0  0  0  0  0  0  0  0  0
   -7.5586   -6.1634    0.0000 C   0  0  0  0  0  0  0  0  0  0  0  0
   -8.5623   -7.2781    0.0000 C   0  0  0  0  0  0  0  0  0  0  0  0
   -4.6242   -6.7871    0.0000 C   0  0  0  0  0  0  0  0  0  0  0  0
   -3.1570   -7.0990    0.0000 O   0  0  0  0  0  0  0  0  0  0  0  0
   -5.6279   -7.9018    0.0000 O   0  0  0  0  0  0  0  0  0  0  0  0
  2  1  1  6
  2  3  1  0
  3  4  1  0
  4  5  1  0
  4  6  1  0
  2  7  1  0
  7  8  2  0
  7  9  1  0
  9 10  1  0
 10 11  1  6
 11 12  1  0
 12 13  1  0
 12 14  1  0
 10 15  1  0
 15 16  2  0
 15 17  1  0
 17 18  1  0
 18 19  1  0
 19 20  1  0
 20 21  1  0
 21 22  1  6
 22 23  2  0
 22 24  1  0
 24 25  1  0
 24 26  1  0
 26 27  1  6
 27 28  1  0
 28 29  1  0
 28 30  1  0
 26 31  1  0
 31 32  2  0
 31 33  1  0
 33 34  1  0
 34 35  1  6
 35 36  1  0
 36 37  3  0
 34 38  1  0
 38 39  2  0
 38 40  1  0
 21 17  1  0
M  END
$$$$

     RDKit          2D

 41 41  0  0  0  0  0  0  0  0999 V2000
    1.2760    5.1962    0.0000 N   0  0  0  0  0  0  0  0  0  0  0  0
    0.5260    6.4952    0.0000 C   0  0  0  0  0  0  0  0  0  0  0  0
    2.7760    5.1962    0.0000 C   0  0  0  0  0  0  0  0  0  0  0  0
    3.5260    6.4952    0.0000 C   0  0  0  0  0  0  0  0  0  0  0  0
    2.7760    7.7942    0.0000 C   0  0  0  0  0  0  0  0  0  0  0  0
    3.5260    9.0933    0.0000 C   0  0  0  0  0  0  0  0  0  0  0  0
    1.2760    7.7942    0.0000 C   0  0  0  0  0  0  0  0  0  0  0  0
    3.5260    3.8971    0.0000 C   0  0  0  0  0  0  0  0  0  0  0  0
    5.0260    3.8971    0.0000 O   0  0  0  0  0  0  0  0  0  0  0  0
    2.7760    2.5981    0.0000 N   0  0  0  0  0  0  0  0  0  0  0  0
    3.5260    1.2990    0.0000 C   0  0  0  0  0  0  0  0  0  0  0  0
    5.0260    1.2990    0.0000 C   0  0  0  0  0  0  0  0  0  0  0  0
    5.7760    0.0000    0.0000 C   0  0  0  0  0  0  0  0  0  0  0  0
    7.2760    0.0000    0.0000 C   0  0  0  0  0  0  0  0  0  0  0  0
    5.0260   -1.2990    0.0000 C   0  0  0  0  0  0  0  0  0  0  0  0
    2.7760    0.0000    0.0000 C   0  0  0  0  0  0  0  0  0  0  0  0
    3.5260   -1.2990    0.0000 O   0  0  0  0  0  0  0  0  0  0  0  0
    1.2760    0.0000    0.0000 N   0  0  0  0  0  0  0  0  0  0  0  0
    0.3943    1.2135    0.0000 C   0  0  0  0  0  0  0  0  0  0  0  0
   -1.0323    0.7500    0.0000 C   0  0  0  0  0  0  0  0  0  0  0  0
   -1.0323   -0.7500    0.0000 C   0  0  0  0  0  0  0  0  0  0  0  0
    0.3943   -1.2135    0.0000 C   0  0  0  0  0  0  0  0  0  0  0  0
    0.8578   -2.6401    0.0000 C   0  0  0  0  0  0  0  0  0  0  0  0
    2.3250   -2.9520    0.0000 O   0  0  0  0  0  0  0  0  0  0  0  0
   -0.1459   -3.7548    0.0000 N   0  0  0  0  0  0  0  0  0  0  0  0
    0.3177   -5.1814    0.0000 C   0  0  0  0  0  0  0  0  0  0  0  0
   -1.6131   -3.4430    0.0000 C   0  0  0  0  0  0  0  0  0  0  0  0
   -2.0766   -2.0164    0.0000 C   0  0  0  0  0  0  0  0  0  0  0  0
   -3.5438   -1.7045    0.0000 C   0  0  0  0  0  0  0  0  0  0  0  0
   -4.0074   -0.2779    0.0000 C   0  0  0  0  0  0  0  0  0  0  0  0
   -4.5475   -2.8192    0.0000 C   0  0  0  0  0  0  0  0  0  0  0  0
   -2.6168   -4.5577    0.0000 C   0  0  0  0  0  0  0  0  0  0  0  0
   -2.1533   -5.9843    0.0000 O   0  0  0  0  0  0  0  0  0  0  0  0
   -4.0840   -4.2458    0.0000 N   0  0  0  0  0  0  0  0  0  0  0  0
   -5.0877   -5.3605    0.0000 C   0  0  0  0  0  0  0  0  0  0  0  0
   -6.5549   -5.0487    0.0000 C   0  0  0  0  0  0  0  0  0  0  0  0
   -7.5586   -6.1634    0.0000 C   0  0  0  0  0  0  0  0  0  0  0  0
   -8.5623   -7.2781    0.0000 C   0  0  0  0  0  0  0  0  0  0  0  0
   -4.6242   -6.7871    0.0000 C   0  0  0  0  0  0  0  0  0  0  0  0
   -3.1570   -7.0990    0.0000 O   0  0  0  0  0  0  0  0  0  0  0  0
   -5.6279   -7.9018    0.0000 O   0  0  0  0  0  0  0  0  0  0  0  0
  1  2  1  0
  1  3  1  0
  3  4  1  1
  4  5  1  0
  5  6  1  0
  5  7  1  0
  3  8  1  0
  8  9  2  0
  8 10  1  0
 10 11  1  0
 11 12  1  6
 12 13  1  0
 13 14  1  0
 13 15  1  0
 11 16  1  0
 16 17  2  0
 16 18  1  0
 18 19  1  0
 19 20  1  0
 20 21  1  0
 21 22  1  0
 22 23  1  6
 23 24  2  0
 23 25  1  0
 25 26  1  0
 25 27  1  0
 27 28  1  6
 28 29  1  0
 29 30  1  0
 29 31  1  0
 27 32  1  0
 32 33  2  0
 32 34  1  0
 34 35  1  0
 35 36  1  6
 36 37  1  0
 37 38  3  0
 35 39  1  0
 39 40  2  0
 39 41  1  0
 22 18  1  0
M  END
$$$$

     RDKit          2D

 41 41  0  0  0  0  0  0  0  0999 V2000
    1.2760    5.1962    0.0000 N   0  0  0  0  0  0  0  0  0  0  0  0
    0.5260    6.4952    0.0000 C   0  0  0  0  0  0  0  0  0  0  0  0
    2.7760    5.1962    0.0000 C   0  0  0  0  0  0  0  0  0  0  0  0
    3.5260    6.4952    0.0000 C   0  0  0  0  0  0  0  0  0  0  0  0
    2.7760    7.7942    0.0000 C   0  0  0  0  0  0  0  0  0  0  0  0
    3.5260    9.0933    0.0000 C   0  0  0  0  0  0  0  0  0  0  0  0
    1.2760    7.7942    0.0000 C   0  0  0  0  0  0  0  0  0  0  0  0
    3.5260    3.8971    0.0000 C   0  0  0  0  0  0  0  0  0  0  0  0
    5.0260    3.8971    0.0000 O   0  0  0  0  0  0  0  0  0  0  0  0
    2.7760    2.5981    0.0000 N   0  0  0  0  0  0  0  0  0  0  0  0
    3.5260    1.2990    0.0000 C   0  0  0  0  0  0  0  0  0  0  0  0
    5.0260    1.2990    0.0000 C   0  0  0  0  0  0  0  0  0  0  0  0
    5.7760    0.0000    0.0000 C   0  0  0  0  0  0  0  0  0  0  0  0
    7.2760    0.0000    0.0000 C   0  0  0  0  0  0  0  0  0  0  0  0
    5.0260   -1.2990    0.0000 C   0  0  0  0  0  0  0  0  0  0  0  0
    2.7760    0.0000    0.0000 C   0  0  0  0  0  0  0  0  0  0  0  0
    3.5260   -1.2990    0.0000 O   0  0  0  0  0  0  0  0  0  0  0  0
    1.2760    0.0000    0.0000 N   0  0  0  0  0  0  0  0  0  0  0  0
    0.3943    1.2135    0.0000 C   0  0  0  0  0  0  0  0  0  0  0  0
   -1.0323    0.7500    0.0000 C   0  0  0  0  0  0  0  0  0  0  0  0
   -1.0323   -0.7500    0.0000 C   0  0  0  0  0  0  0  0  0  0  0  0
    0.3943   -1.2135    0.0000 C   0  0  0  0  0  0  0  0  0  0  0  0
    0.8578   -2.6401    0.0000 C   0  0  0  0  0  0  0  0  0  0  0  0
    2.3250   -2.9520    0.0000 O   0  0  0  0  0  0  0  0  0  0  0  0
   -0.1459   -3.7548    0.0000 N   0  0  0  0  0  0  0  0  0  0  0  0
    0.3177   -5.1814    0.0000 C   0  0  0  0  0  0  0  0  0  0  0  0
   -1.6131   -3.4430    0.0000 C   0  0  0  0  0  0  0  0  0  0  0  0
   -2.0766   -2.0164    0.0000 C   0  0  0  0  0  0  0  0  0  0  0  0
   -3.5438   -1.7045    0.0000 C   0  0  0  0  0  0  0  0  0  0  0  0
   -4.0074   -0.2779    0.0000 C   0  0  0  0  0  0  0  0  0  0  0  0
   -4.5475   -2.8192    0.0000 C   0  0  0  0  0  0  0  0  0  0  0  0
   -2.6168   -4.5577    0.0000 C   0  0  0  0  0  0  0  0  0  0  0  0
   -2.1533   -5.9843    0.0000 O   0  0  0  0  0  0  0  0  0  0  0  0
   -4.0840   -4.2458    0.0000 N   0  0  0  0  0  0  0  0  0  0  0  0
   -5.0877   -5.3605    0.0000 C   0  0  0  0  0  0  0  0  0  0  0  0
   -6.5549   -5.0487    0.0000 C   0  0  0  0  0  0  0  0  0  0  0  0
   -7.5586   -6.1634    0.0000 C   0  0  0  0  0  0  0  0  0  0  0  0
   -8.5623   -7.2781    0.0000 C   0  0  0  0  0  0  0  0  0  0  0  0
   -4.6242   -6.7871    0.0000 C   0  0  0  0  0  0  0  0  0  0  0  0
   -3.1570   -7.0990    0.0000 O   0  0  0  0  0  0  0  0  0  0  0  0
   -5.6279   -7.9018    0.0000 O   0  0  0  0  0  0  0  0  0  0  0  0
  1  2  1  0
  1  3  1  0
  3  4  1  6
  4  5  1  0
  5  6  1  0
  5  7  1  0
  3  8  1  0
  8  9  2  0
  8 10  1  0
 10 11  1  0
 11 12  1  6
 12 13  1  0
 13 14  1  0
 13 15  1  0
 11 16  1  0
 16 17  2  0
 16 18  1  0
 18 19  1  0
 19 20  1  0
 20 21  1  0
 21 22  1  0
 22 23  1  6
 23 24  2  0
 23 25  1  0
 25 26  1  0
 25 27  1  0
 27 28  1  6
 28 29  1  0
 29 30  1  0
 29 31  1  0
 27 32  1  0
 32 33  2  0
 32 34  1  0
 34 35  1  0
 35 36  1  6
 36 37  1  0
 37 38  3  0
 35 39  1  0
 39 40  2  0
 39 41  1  0
 22 18  1  0
M  END
$$$$

     RDKit          2D

 41 41  0  0  0  0  0  0  0  0999 V2000
    8.0260    1.2990    0.0000 N   0  0  0  0  0  0  0  0  0  0  0  0
    7.2760    0.0000    0.0000 C   0  0  0  0  0  0  0  0  0  0  0  0
    8.0260   -1.2990    0.0000 C   0  0  0  0  0  0  0  0  0  0  0  0
    9.5260   -1.2990    0.0000 C   0  0  0  0  0  0  0  0  0  0  0  0
   10.2760   -2.5981    0.0000 C   0  0  0  0  0  0  0  0  0  0  0  0
   10.2760    0.0000    0.0000 C   0  0  0  0  0  0  0  0  0  0  0  0
    5.7760    0.0000    0.0000 C   0  0  0  0  0  0  0  0  0  0  0  0
    5.0260   -1.2990    0.0000 O   0  0  0  0  0  0  0  0  0  0  0  0
    5.0260    1.2990    0.0000 N   0  0  0  0  0  0  0  0  0  0  0  0
    5.7760    2.5981    0.0000 C   0  0  0  0  0  0  0  0  0  0  0  0
    3.5260    1.2990    0.0000 C   0  0  0  0  0  0  0  0  0  0  0  0
    2.7760    2.5981    0.0000 C   0  0  0  0  0  0  0  0  0  0  0  0
    3.5260    3.8971    0.0000 C   0  0  0  0  0  0  0  0  0  0  0  0
    2.7760    5.1962    0.0000 C   0  0  0  0  0  0  0  0  0  0  0  0
    5.0260    3.8971    0.0000 C   0  0  0  0  0  0  0  0  0  0  0  0
    2.7760    0.0000    0.0000 C   0  0  0  0  0  0  0  0  0  0  0  0
    3.5260   -1.2990    0.0000 O   0  0  0  0  0  0  0  0  0  0  0  0
    1.2760    0.0000    0.0000 N   0  0  0  0  0  0  0  0  0  0  0  0
    0.3943    1.2135    0.0000 C   0  0  0  0  0  0  0  0  0  0  0  0
   -1.0323    0.7500    0.0000 C   0  0  0  0  0  0  0  0  0  0  0  0
   -1.0323   -0.7500    0.0000 C   0  0  0  0  0  0  0  0  0  0  0  0
    0.3943   -1.2135    0.0000 C   0  0  0  0  0  0  0  0  0  0  0  0
    0.8578   -2.6401    0.0000 C   0  0  0  0  0  0  0  0  0  0  0  0
    2.3250   -2.9520    0.0000 O   0  0  0  0  0  0  0  0  0  0  0  0
   -0.1459   -3.7548    0.0000 N   0  0  0  0  0  0  0  0  0  0  0  0
    0.3177   -5.1814    0.0000 C   0  0  0  0  0  0  0  0  0  0  0  0
   -1.6131   -3.4430    0.0000 C   0  0  0  0  0  0  0  0  0  0  0  0
   -2.0766   -2.0164    0.0000 C   0  0  0  0  0  0  0  0  0  0  0  0
   -3.5438   -1.7045    0.0000 C   0  0  0  0  0  0  0  0  0  0  0  0
   -4.0074   -0.2779    0.0000 C   0  0  0  0  0  0  0  0  0  0  0  0
   -4.5475   -2.8192    0.0000 C   0  0  0  0  0  0  0  0  0  0  0  0
   -2.6168   -4.5577    0.0000 C   0  0  0  0  0  0  0  0  0  0  0  0
   -2.1533   -5.9843    0.0000 O   0  0  0  0  0  0  0  0  0  0  0  0
   -4.0840   -4.2458    0.0000 N   0  0  0  0  0  0  0  0  0  0  0  0
   -5.0877   -5.3605    0.0000 C   0  0  0  0  0  0  0  0  0  0  0  0
   -6.5549   -5.0487    0.0000 C   0  0  0  0  0  0  0  0  0  0  0  0
   -7.5586   -6.1634    0.0000 C   0  0  0  0  0  0  0  0  0  0  0  0
   -8.5623   -7.2781    0.0000 C   0  0  0  0  0  0  0  0  0  0  0  0
   -4.6242   -6.7871    0.0000 C   0  0  0  0  0  0  0  0  0  0  0  0
   -3.1570   -7.0990    0.0000 O   0  0  0  0  0  0  0  0  0  0  0  0
   -5.6279   -7.9018    0.0000 O   0  0  0  0  0  0  0  0  0  0  0  0
  2  1  1  1
  2  3  1  0
  3  4  1  0
  4  5  1  0
  4  6  1  0
  2  7  1  0
  7  8  2  0
  7  9  1  0
  9 10  1  0
  9 11  1  0
 11 12  1  6
 12 13  1  0
 13 14  1  0
 13 15  1  0
 11 16  1  0
 16 17  2  0
 16 18  1  0
 18 19  1  0
 19 20  1  0
 20 21  1  0
 21 22  1  0
 22 23  1  6
 23 24  2  0
 23 25  1  0
 25 26  1  0
 25 27  1  0
 27 28  1  6
 28 29  1  0
 29 30  1  0
 29 31  1  0
 27 32  1  0
 32 33  2  0
 32 34  1  0
 34 35  1  0
 35 36  1  6
 36 37  1  0
 37 38  3  0
 35 39  1  0
 39 40  2  0
 39 41  1  0
 22 18  1  0
M  END
$$$$

     RDKit          2D

 41 41  0  0  0  0  0  0  0  0999 V2000
    8.0260    1.2990    0.0000 N   0  0  0  0  0  0  0  0  0  0  0  0
    7.2760    0.0000    0.0000 C   0  0  0  0  0  0  0  0  0  0  0  0
    8.0260   -1.2990    0.0000 C   0  0  0  0  0  0  0  0  0  0  0  0
    9.5260   -1.2990    0.0000 C   0  0  0  0  0  0  0  0  0  0  0  0
   10.2760   -2.5981    0.0000 C   0  0  0  0  0  0  0  0  0  0  0  0
   10.2760    0.0000    0.0000 C   0  0  0  0  0  0  0  0  0  0  0  0
    5.7760    0.0000    0.0000 C   0  0  0  0  0  0  0  0  0  0  0  0
    5.0260   -1.2990    0.0000 O   0  0  0  0  0  0  0  0  0  0  0  0
    5.0260    1.2990    0.0000 N   0  0  0  0  0  0  0  0  0  0  0  0
    5.7760    2.5981    0.0000 C   0  0  0  0  0  0  0  0  0  0  0  0
    3.5260    1.2990    0.0000 C   0  0  0  0  0  0  0  0  0  0  0  0
    2.7760    2.5981    0.0000 C   0  0  0  0  0  0  0  0  0  0  0  0
    3.5260    3.8971    0.0000 C   0  0  0  0  0  0  0  0  0  0  0  0
    2.7760    5.1962    0.0000 C   0  0  0  0  0  0  0  0  0  0  0  0
    5.0260    3.8971    0.0000 C   0  0  0  0  0  0  0  0  0  0  0  0
    2.7760    0.0000    0.0000 C   0  0  0  0  0  0  0  0  0  0  0  0
    3.5260   -1.2990    0.0000 O   0  0  0  0  0  0  0  0  0  0  0  0
    1.2760    0.0000    0.0000 N   0  0  0  0  0  0  0  0  0  0  0  0
    0.3943    1.2135    0.0000 C   0  0  0  0  0  0  0  0  0  0  0  0
   -1.0323    0.7500    0.0000 C   0  0  0  0  0  0  0  0  0  0  0  0
   -1.0323   -0.7500    0.0000 C   0  0  0  0  0  0  0  0  0  0  0  0
    0.3943   -1.2135    0.0000 C   0  0  0  0  0  0  0  0  0  0  0  0
    0.8578   -2.6401    0.0000 C   0  0  0  0  0  0  0  0  0  0  0  0
    2.3250   -2.9520    0.0000 O   0  0  0  0  0  0  0  0  0  0  0  0
   -0.1459   -3.7548    0.0000 N   0  0  0  0  0  0  0  0  0  0  0  0
    0.3177   -5.1814    0.0000 C   0  0  0  0  0  0  0  0  0  0  0  0
   -1.6131   -3.4430    0.0000 C   0  0  0  0  0  0  0  0  0  0  0  0
   -2.0766   -2.0164    0.0000 C   0  0  0  0  0  0  0  0  0  0  0  0
   -3.5438   -1.7045    0.0000 C   0  0  0  0  0  0  0  0  0  0  0  0
   -4.0074   -0.2779    0.0000 C   0  0  0  0  0  0  0  0  0  0  0  0
   -4.5475   -2.8192    0.0000 C   0  0  0  0  0  0  0  0  0  0  0  0
   -2.6168   -4.5577    0.0000 C   0  0  0  0  0  0  0  0  0  0  0  0
   -2.1533   -5.9843    0.0000 O   0  0  0  0  0  0  0  0  0  0  0  0
   -4.0840   -4.2458    0.0000 N   0  0  0  0  0  0  0  0  0  0  0  0
   -5.0877   -5.3605    0.0000 C   0  0  0  0  0  0  0  0  0  0  0  0
   -6.5549   -5.0487    0.0000 C   0  0  0  0  0  0  0  0  0  0  0  0
   -7.5586   -6.1634    0.0000 C   0  0  0  0  0  0  0  0  0  0  0  0
   -8.5623   -7.2781    0.0000 C   0  0  0  0  0  0  0  0  0  0  0  0
   -4.6242   -6.7871    0.0000 C   0  0  0  0  0  0  0  0  0  0  0  0
   -3.1570   -7.0990    0.0000 O   0  0  0  0  0  0  0  0  0  0  0  0
   -5.6279   -7.9018    0.0000 O   0  0  0  0  0  0  0  0  0  0  0  0
  2  1  1  6
  2  3  1  0
  3  4  1  0
  4  5  1  0
  4  6  1  0
  2  7  1  0
  7  8  2  0
  7  9  1  0
  9 10  1  0
  9 11  1  0
 11 12  1  6
 12 13  1  0
 13 14  1  0
 13 15  1  0
 11 16  1  0
 16 17  2  0
 16 18  1  0
 18 19  1  0
 19 20  1  0
 20 21  1  0
 21 22  1  0
 22 23  1  6
 23 24  2  0
 23 25  1  0
 25 26  1  0
 25 27  1  0
 27 28  1  6
 28 29  1  0
 29 30  1  0
 29 31  1  0
 27 32  1  0
 32 33  2  0
 32 34  1  0
 34 35  1  0
 35 36  1  6
 36 37  1  0
 37 38  3  0
 35 39  1  0
 39 40  2  0
 39 41  1  0
 22 18  1  0
M  END
$$$$

     RDKit          2D

 25 24  0  0  0  0  0  0  0  0999 V2000
    6.4952    6.7500    0.0000 N   0  0  0  0  0  0  0  0  0  0  0  0
    5.1962    7.5000    0.0000 C   0  0  0  0  0  0  0  0  0  0  0  0
    5.1962    9.0000    0.0000 C   0  0  0  0  0  0  0  0  0  0  0  0
    6.4952    9.7500    0.0000 C   0  0  0  0  0  0  0  0  0  0  0  0
    6.4952   11.2500    0.0000 C   0  0  0  0  0  0  0  0  0  0  0  0
    7.7942    9.0000    0.0000 C   0  0  0  0  0  0  0  0  0  0  0  0
    3.8971    6.7500    0.0000 C   0  0  0  0  0  0  0  0  0  0  0  0
    2.5981    7.5000    0.0000 O   0  0  0  0  0  0  0  0  0  0  0  0
    3.8971    5.2500    0.0000 N   0  0  0  0  0  0  0  0  0  0  0  0
    2.5981    4.5000    0.0000 C   0  0  0  0  0  0  0  0  0  0  0  0
    5.1962    4.5000    0.0000 C   0  0  0  0  0  0  0  0  0  0  0  0
    6.4952    5.2500    0.0000 C   0  0  0  0  0  0  0  0  0  0  0  0
    7.7942    4.5000    0.0000 C   0  0  0  0  0  0  0  0  0  0  0  0
    9.0933    5.2500    0.0000 C   0  0  0  0  0  0  0  0  0  0  0  0
    7.7942    3.0000    0.0000 C   0  0  0  0  0  0  0  0  0  0  0  0
    5.1962    3.0000    0.0000 C   0  0  0  0  0  0  0  0  0  0  0  0
    3.8971    2.2500    0.0000 O   0  0  0  0  0  0  0  0  0  0  0  0
    6.4952    2.2500    0.0000 N   0  0  0  0  0  0  0  0  0  0  0  0
    6.4952    0.7500    0.0000 C   0  0  0  0  0  0  0  0  0  0  0  0
    7.7942    0.0000    0.0000 C   0  0  0  0  0  0  0  0  0  0  0  0
    7.7942   -1.5000    0.0000 C   0  0  0  0  0  0  0  0  0  0  0  0
    7.7942   -3.0000    0.0000 C   0  0  0  0  0  0  0  0  0  0  0  0
    5.1962   -0.0000    0.0000 C   0  0  0  0  0  0  0  0  0  0  0  0
    3.8971    0.7500    0.0000 O   0  0  0  0  0  0  0  0  0  0  0  0
    5.1962   -1.5000    0.0000 O   0  0  0  0  0  0  0  0  0  0  0  0
  2  1  1  6
  2  3  1  0
  3  4  1  0
  4  5  1  0
  4  6  1  0
  2  7  1  0
  7  8  2  0
  7  9  1  0
  9 10  1  0
  9 11  1  0
 11 12  1  6
 12 13  1  0
 13 14  1  0
 13 15  1  0
 11 16  1  0
 16 17  2  0
 16 18  1  0
 18 19  1  0
 19 20  1  1
 20 21  1  0
 21 22  3  0
 19 23  1  0
 23 24  2  0
 23 25  1  0
M  END
$$$$

     RDKit          2D

 25 24  0  0  0  0  0  0  0  0999 V2000
    6.4952    6.7500    0.0000 N   0  0  0  0  0  0  0  0  0  0  0  0
    5.1962    7.5000    0.0000 C   0  0  0  0  0  0  0  0  0  0  0  0
    5.1962    9.0000    0.0000 C   0  0  0  0  0  0  0  0  0  0  0  0
    6.4952    9.7500    0.0000 C   0  0  0  0  0  0  0  0  0  0  0  0
    6.4952   11.2500    0.0000 C   0  0  0  0  0  0  0  0  0  0  0  0
    7.7942    9.0000    0.0000 C   0  0  0  0  0  0  0  0  0  0  0  0
    3.8971    6.7500    0.0000 C   0  0  0  0  0  0  0  0  0  0  0  0
    2.5981    7.5000    0.0000 O   0  0  0  0  0  0  0  0  0  0  0  0
    3.8971    5.2500    0.0000 N   0  0  0  0  0  0  0  0  0  0  0  0
    2.5981    4.5000    0.0000 C   0  0  0  0  0  0  0  0  0  0  0  0
    5.1962    4.5000    0.0000 C   0  0  0  0  0  0  0  0  0  0  0  0
    6.4952    5.2500    0.0000 C   0  0  0  0  0  0  0  0  0  0  0  0
    7.7942    4.5000    0.0000 C   0  0  0  0  0  0  0  0  0  0  0  0
    9.0933    5.2500    0.0000 C   0  0  0  0  0  0  0  0  0  0  0  0
    7.7942    3.0000    0.0000 C   0  0  0  0  0  0  0  0  0  0  0  0
    5.1962    3.0000    0.0000 C   0  0  0  0  0  0  0  0  0  0  0  0
    3.8971    2.2500    0.0000 O   0  0  0  0  0  0  0  0  0  0  0  0
    6.4952    2.2500    0.0000 N   0  0  0  0  0  0  0  0  0  0  0  0
    6.4952    0.7500    0.0000 C   0  0  0  0  0  0  0  0  0  0  0  0
    7.7942    0.0000    0.0000 C   0  0  0  0  0  0  0  0  0  0  0  0
    7.7942   -1.5000    0.0000 C   0  0  0  0  0  0  0  0  0  0  0  0
    7.7942   -3.0000    0.0000 C   0  0  0  0  0  0  0  0  0  0  0  0
    5.1962   -0.0000    0.0000 C   0  0  0  0  0  0  0  0  0  0  0  0
    3.8971    0.7500    0.0000 O   0  0  0  0  0  0  0  0  0  0  0  0
    5.1962   -1.5000    0.0000 O   0  0  0  0  0  0  0  0  0  0  0  0
  2  1  1  1
  2  3  1  0
  3  4  1  0
  4  5  1  0
  4  6  1  0
  2  7  1  0
  7  8  2  0
  7  9  1  0
  9 10  1  0
  9 11  1  0
 11 12  1  6
 12 13  1  0
 13 14  1  0
 13 15  1  0
 11 16  1  0
 16 17  2  0
 16 18  1  0
 18 19  1  0
 19 20  1  1
 20 21  1  0
 21 22  3  0
 19 23  1  0
 23 24  2  0
 23 25  1  0
M  END
$$$$

     RDKit          2D

 24 23  0  0  0  0  0  0  0  0999 V2000
    2.5981    7.5000    0.0000 N   0  0  0  0  0  0  0  0  0  0  0  0
    3.8971    6.7500    0.0000 C   0  0  0  0  0  0  0  0  0  0  0  0
    5.1962    7.5000    0.0000 C   0  0  0  0  0  0  0  0  0  0  0  0
    5.1962    9.0000    0.0000 C   0  0  0  0  0  0  0  0  0  0  0  0
    6.4952    6.7500    0.0000 C   0  0  0  0  0  0  0  0  0  0  0  0
    3.8971    5.2500    0.0000 C   0  0  0  0  0  0  0  0  0  0  0  0
    5.1962    4.5000    0.0000 O   0  0  0  0  0  0  0  0  0  0  0  0
    2.5981    4.5000    0.0000 N   0  0  0  0  0  0  0  0  0  0  0  0
    2.5981    3.0000    0.0000 C   0  0  0  0  0  0  0  0  0  0  0  0
    1.2990    5.2500    0.0000 C   0  0  0  0  0  0  0  0  0  0  0  0
    1.2990    6.7500    0.0000 C   0  0  0  0  0  0  0  0  0  0  0  0
    0.0000    7.5000    0.0000 C   0  0  0  0  0  0  0  0  0  0  0  0
    0.0000    9.0000    0.0000 C   0  0  0  0  0  0  0  0  0  0  0  0
   -1.2990    6.7500    0.0000 C   0  0  0  0  0  0  0  0  0  0  0  0
    0.0000    4.5000    0.0000 C   0  0  0  0  0  0  0  0  0  0  0  0
   -0.0000    3.0000    0.0000 O   0  0  0  0  0  0  0  0  0  0  0  0
   -1.2990    5.2500    0.0000 N   0  0  0  0  0  0  0  0  0  0  0  0
   -2.5981    4.5000    0.0000 C   0  0  0  0  0  0  0  0  0  0  0  0
   -3.8971    5.2500    0.0000 C   0  0  0  0  0  0  0  0  0  0  0  0
   -5.1962    4.5000    0.0000 C   0  0  0  0  0  0  0  0  0  0  0  0
   -6.4952    3.7500    0.0000 C   0  0  0  0  0  0  0  0  0  0  0  0
   -2.5981    3.0000    0.0000 C   0  0  0  0  0  0  0  0  0  0  0  0
   -1.2990    2.2500    0.0000 O   0  0  0  0  0  0  0  0  0  0  0  0
   -3.8971    2.2500    0.0000 O   0  0  0  0  0  0  0  0  0  0  0  0
  2  1  1  1
  2  3  1  0
  3  4  1  0
  3  5  1  0
  2  6  1  0
  6  7  2  0
  6  8  1  0
  8  9  1  0
  8 10  1  0
 10 11  1  1
 11 12  1  0
 12 13  1  0
 12 14  1  0
 10 15  1  0
 15 16  2  0
 15 17  1  0
 17 18  1  0
 18 19  1  6
 19 20  1  0
 20 21  3  0
 18 22  1  0
 22 23  2  0
 22 24  1  0
M  END
$$$$

     RDKit          2D

 24 23  0  0  0  0  0  0  0  0999 V2000
    2.5981    7.5000    0.0000 N   0  0  0  0  0  0  0  0  0  0  0  0
    3.8971    6.7500    0.0000 C   0  0  0  0  0  0  0  0  0  0  0  0
    5.1962    7.5000    0.0000 C   0  0  0  0  0  0  0  0  0  0  0  0
    5.1962    9.0000    0.0000 C   0  0  0  0  0  0  0  0  0  0  0  0
    6.4952    6.7500    0.0000 C   0  0  0  0  0  0  0  0  0  0  0  0
    3.8971    5.2500    0.0000 C   0  0  0  0  0  0  0  0  0  0  0  0
    5.1962    4.5000    0.0000 O   0  0  0  0  0  0  0  0  0  0  0  0
    2.5981    4.5000    0.0000 N   0  0  0  0  0  0  0  0  0  0  0  0
    2.5981    3.0000    0.0000 C   0  0  0  0  0  0  0  0  0  0  0  0
    1.2990    5.2500    0.0000 C   0  0  0  0  0  0  0  0  0  0  0  0
    1.2990    6.7500    0.0000 C   0  0  0  0  0  0  0  0  0  0  0  0
    0.0000    7.5000    0.0000 C   0  0  0  0  0  0  0  0  0  0  0  0
    0.0000    9.0000    0.0000 C   0  0  0  0  0  0  0  0  0  0  0  0
   -1.2990    6.7500    0.0000 C   0  0  0  0  0  0  0  0  0  0  0  0
    0.0000    4.5000    0.0000 C   0  0  0  0  0  0  0  0  0  0  0  0
   -0.0000    3.0000    0.0000 O   0  0  0  0  0  0  0  0  0  0  0  0
   -1.2990    5.2500    0.0000 N   0  0  0  0  0  0  0  0  0  0  0  0
   -2.5981    4.5000    0.0000 C   0  0  0  0  0  0  0  0  0  0  0  0
   -3.8971    5.2500    0.0000 C   0  0  0  0  0  0  0  0  0  0  0  0
   -5.1962    4.5000    0.0000 C   0  0  0  0  0  0  0  0  0  0  0  0
   -6.4952    3.7500    0.0000 C   0  0  0  0  0  0  0  0  0  0  0  0
   -2.5981    3.0000    0.0000 C   0  0  0  0  0  0  0  0  0  0  0  0
   -1.2990    2.2500    0.0000 O   0  0  0  0  0  0  0  0  0  0  0  0
   -3.8971    2.2500    0.0000 O   0  0  0  0  0  0  0  0  0  0  0  0
  2  1  1  6
  2  3  1  0
  3  4  1  0
  3  5  1  0
  2  6  1  0
  6  7  2  0
  6  8  1  0
  8  9  1  0
  8 10  1  0
 10 11  1  1
 11 12  1  0
 12 13  1  0
 12 14  1  0
 10 15  1  0
 15 16  2  0
 15 17  1  0
 17 18  1  0
 18 19  1  6
 19 20  1  0
 20 21  3  0
 18 22  1  0
 22 23  2  0
 22 24  1  0
M  END
$$$$

     RDKit          2D

 26 25  0  0  0  0  0  0  0  0999 V2000
    1.2990   -3.7500    0.0000 N   0  0  0  0  0  0  0  0  0  0  0  0
    2.5981   -4.5000    0.0000 C   0  0  0  0  0  0  0  0  0  0  0  0
    1.2990   -2.2500    0.0000 C   0  0  0  0  0  0  0  0  0  0  0  0
   -0.0000   -1.5000    0.0000 C   0  0  0  0  0  0  0  0  0  0  0  0
   -0.0000   -0.0000    0.0000 C   0  0  0  0  0  0  0  0  0  0  0  0
   -1.2990    0.7500    0.0000 C   0  0  0  0  0  0  0  0  0  0  0  0
    1.2990    0.7500    0.0000 C   0  0  0  0  0  0  0  0  0  0  0  0
    2.5981   -1.5000    0.0000 C   0  0  0  0  0  0  0  0  0  0  0  0
    2.5981   -0.0000    0.0000 O   0  0  0  0  0  0  0  0  0  0  0  0
    3.8971   -2.2500    0.0000 N   0  0  0  0  0  0  0  0  0  0  0  0
    3.8971   -3.7500    0.0000 C   0  0  0  0  0  0  0  0  0  0  0  0
    5.1962   -1.5000    0.0000 C   0  0  0  0  0  0  0  0  0  0  0  0
    6.4952   -2.2500    0.0000 C   0  0  0  0  0  0  0  0  0  0  0  0
    7.7942   -1.5000    0.0000 C   0  0  0  0  0  0  0  0  0  0  0  0
    9.0933   -2.2500    0.0000 C   0  0  0  0  0  0  0  0  0  0  0  0
    7.7942    0.0000    0.0000 C   0  0  0  0  0  0  0  0  0  0  0  0
    5.1962    0.0000    0.0000 C   0  0  0  0  0  0  0  0  0  0  0  0
    3.8971    0.7500    0.0000 O   0  0  0  0  0  0  0  0  0  0  0  0
    6.4952    0.7500    0.0000 N   0  0  0  0  0  0  0  0  0  0  0  0
    6.4952    2.2500    0.0000 C   0  0  0  0  0  0  0  0  0  0  0  0
    7.7942    3.0000    0.0000 C   0  0  0  0  0  0  0  0  0  0  0  0
    7.7942    4.5000    0.0000 C   0  0  0  0  0  0  0  0  0  0  0  0
    7.7942    6.0000    0.0000 C   0  0  0  0  0  0  0  0  0  0  0  0
    5.1962    3.0000    0.0000 C   0  0  0  0  0  0  0  0  0  0  0  0
    3.8971    2.2500    0.0000 O   0  0  0  0  0  0  0  0  0  0  0  0
    5.1962    4.5000    0.0000 O   0  0  0  0  0  0  0  0  0  0  0  0
  1  2  1  0
  1  3  1  0
  3  4  1  1
  4  5  1  0
  5  6  1  0
  5  7  1  0
  3  8  1  0
  8  9  2  0
  8 10  1  0
 10 11  1  0
 10 12  1  0
 12 13  1  1
 13 14  1  0
 14 15  1  0
 14 16  1  0
 12 17  1  0
 17 18  2  0
 17 19  1  0
 19 20  1  0
 20 21  1  6
 21 22  1  0
 22 23  3  0
 20 24  1  0
 24 25  2  0
 24 26  1  0
M  END
$$$$

     RDKit          2D

 26 25  0  0  0  0  0  0  0  0999 V2000
    1.2990   -3.7500    0.0000 N   0  0  0  0  0  0  0  0  0  0  0  0
    2.5981   -4.5000    0.0000 C   0  0  0  0  0  0  0  0  0  0  0  0
    1.2990   -2.2500    0.0000 C   0  0  0  0  0  0  0  0  0  0  0  0
   -0.0000   -1.5000    0.0000 C   0  0  0  0  0  0  0  0  0  0  0  0
   -0.0000   -0.0000    0.0000 C   0  0  0  0  0  0  0  0  0  0  0  0
   -1.2990    0.7500    0.0000 C   0  0  0  0  0  0  0  0  0  0  0  0
    1.2990    0.7500    0.0000 C   0  0  0  0  0  0  0  0  0  0  0  0
    2.5981   -1.5000    0.0000 C   0  0  0  0  0  0  0  0  0  0  0  0
    2.5981   -0.0000    0.0000 O   0  0  0  0  0  0  0  0  0  0  0  0
    3.8971   -2.2500    0.0000 N   0  0  0  0  0  0  0  0  0  0  0  0
    3.8971   -3.7500    0.0000 C   0  0  0  0  0  0  0  0  0  0  0  0
    5.1962   -1.5000    0.0000 C   0  0  0  0  0  0  0  0  0  0  0  0
    6.4952   -2.2500    0.0000 C   0  0  0  0  0  0  0  0  0  0  0  0
    7.7942   -1.5000    0.0000 C   0  0  0  0  0  0  0  0  0  0  0  0
    9.0933   -2.2500    0.0000 C   0  0  0  0  0  0  0  0  0  0  0  0
    7.7942    0.0000    0.0000 C   0  0  0  0  0  0  0  0  0  0  0  0
    5.1962    0.0000    0.0000 C   0  0  0  0  0  0  0  0  0  0  0  0
    3.8971    0.7500    0.0000 O   0  0  0  0  0  0  0  0  0  0  0  0
    6.4952    0.7500    0.0000 N   0  0  0  0  0  0  0  0  0  0  0  0
    6.4952    2.2500    0.0000 C   0  0  0  0  0  0  0  0  0  0  0  0
    7.7942    3.0000    0.0000 C   0  0  0  0  0  0  0  0  0  0  0  0
    7.7942    4.5000    0.0000 C   0  0  0  0  0  0  0  0  0  0  0  0
    7.7942    6.0000    0.0000 C   0  0  0  0  0  0  0  0  0  0  0  0
    5.1962    3.0000    0.0000 C   0  0  0  0  0  0  0  0  0  0  0  0
    3.8971    2.2500    0.0000 O   0  0  0  0  0  0  0  0  0  0  0  0
    5.1962    4.5000    0.0000 O   0  0  0  0  0  0  0  0  0  0  0  0
  1  2  1  0
  1  3  1  0
  3  4  1  6
  4  5  1  0
  5  6  1  0
  5  7  1  0
  3  8  1  0
  8  9  2  0
  8 10  1  0
 10 11  1  0
 10 12  1  0
 12 13  1  1
 13 14  1  0
 14 15  1  0
 14 16  1  0
 12 17  1  0
 17 18  2  0
 17 19  1  0
 19 20  1  0
 20 21  1  6
 21 22  1  0
 22 23  3  0
 20 24  1  0
 24 25  2  0
 24 26  1  0
M  END
$$$$

     RDKit          2D

 28 28  0  0  0  0  0  0  0  0999 V2000
    7.5000   -5.1962    0.0000 N   0  0  0  0  0  0  0  0  0  0  0  0
    8.2500   -3.8971    0.0000 C   0  0  0  0  0  0  0  0  0  0  0  0
    9.7500   -3.8971    0.0000 C   0  0  0  0  0  0  0  0  0  0  0  0
   10.5000   -5.1962    0.0000 C   0  0  0  0  0  0  0  0  0  0  0  0
    9.7500   -6.4952    0.0000 C   0  0  0  0  0  0  0  0  0  0  0  0
   10.5000   -7.7942    0.0000 C   0  0  0  0  0  0  0  0  0  0  0  0
   12.0000   -7.7942    0.0000 C   0  0  0  0  0  0  0  0  0  0  0  0
   12.7500   -6.4952    0.0000 C   0  0  0  0  0  0  0  0  0  0  0  0
   12.0000   -5.1962    0.0000 C   0  0  0  0  0  0  0  0  0  0  0  0
    7.5000   -2.5981    0.0000 C   0  0  0  0  0  0  0  0  0  0  0  0
    8.2500   -1.2990    0.0000 O   0  0  0  0  0  0  0  0  0  0  0  0
    6.0000   -2.5981    0.0000 N   0  0  0  0  0  0  0  0  0  0  0  0
    5.2500   -1.2990    0.0000 C   0  0  0  0  0  0  0  0  0  0  0  0
    5.2500   -3.8971    0.0000 C   0  0  0  0  0  0  0  0  0  0  0  0
    6.0000   -5.1962    0.0000 C   0  0  0  0  0  0  0  0  0  0  0  0
    5.2500   -6.4952    0.0000 C   0  0  0  0  0  0  0  0  0  0  0  0
    6.0000   -7.7942    0.0000 C   0  0  0  0  0  0  0  0  0  0  0  0
    3.7500   -6.4952    0.0000 C   0  0  0  0  0  0  0  0  0  0  0  0
    3.7500   -3.8971    0.0000 C   0  0  0  0  0  0  0  0  0  0  0  0
    3.0000   -2.5981    0.0000 O   0  0  0  0  0  0  0  0  0  0  0  0
    3.0000   -5.1962    0.0000 N   0  0  0  0  0  0  0  0  0  0  0  0
    1.5000   -5.1962    0.0000 C   0  0  0  0  0  0  0  0  0  0  0  0
    0.7500   -6.4952    0.0000 C   0  0  0  0  0  0  0  0  0  0  0  0
   -0.7500   -6.4952    0.0000 C   0  0  0  0  0  0  0  0  0  0  0  0
   -2.2500   -6.4952    0.0000 C   0  0  0  0  0  0  0  0  0  0  0  0
    0.7500   -3.8971    0.0000 C   0  0  0  0  0  0  0  0  0  0  0  0
    1.5000   -2.5981    0.0000 O   0  0  0  0  0  0  0  0  0  0  0  0
   -0.7500   -3.8971    0.0000 O   0  0  0  0  0  0  0  0  0  0  0  0
  2  1  1  6
  2  3  1  0
  3  4  1  0
  4  5  2  0
  5  6  1  0
  6  7  2  0
  7  8  1  0
  8  9  2  0
  2 10  1  0
 10 11  2  0
 10 12  1  0
 12 13  1  0
 12 14  1  0
 14 15  1  6
 15 16  1  0
 16 17  1  0
 16 18  1  0
 14 19  1  0
 19 20  2  0
 19 21  1  0
 21 22  1  0
 22 23  1  1
 23 24  1  0
 24 25  3  0
 22 26  1  0
 26 27  2  0
 26 28  1  0
  9  4  1  0
M  END
$$$$

     RDKit          2D

 28 28  0  0  0  0  0  0  0  0999 V2000
    7.5000   -5.1962    0.0000 N   0  0  0  0  0  0  0  0  0  0  0  0
    8.2500   -3.8971    0.0000 C   0  0  0  0  0  0  0  0  0  0  0  0
    9.7500   -3.8971    0.0000 C   0  0  0  0  0  0  0  0  0  0  0  0
   10.5000   -5.1962    0.0000 C   0  0  0  0  0  0  0  0  0  0  0  0
    9.7500   -6.4952    0.0000 C   0  0  0  0  0  0  0  0  0  0  0  0
   10.5000   -7.7942    0.0000 C   0  0  0  0  0  0  0  0  0  0  0  0
   12.0000   -7.7942    0.0000 C   0  0  0  0  0  0  0  0  0  0  0  0
   12.7500   -6.4952    0.0000 C   0  0  0  0  0  0  0  0  0  0  0  0
   12.0000   -5.1962    0.0000 C   0  0  0  0  0  0  0  0  0  0  0  0
    7.5000   -2.5981    0.0000 C   0  0  0  0  0  0  0  0  0  0  0  0
    8.2500   -1.2990    0.0000 O   0  0  0  0  0  0  0  0  0  0  0  0
    6.0000   -2.5981    0.0000 N   0  0  0  0  0  0  0  0  0  0  0  0
    5.2500   -1.2990    0.0000 C   0  0  0  0  0  0  0  0  0  0  0  0
    5.2500   -3.8971    0.0000 C   0  0  0  0  0  0  0  0  0  0  0  0
    6.0000   -5.1962    0.0000 C   0  0  0  0  0  0  0  0  0  0  0  0
    5.2500   -6.4952    0.0000 C   0  0  0  0  0  0  0  0  0  0  0  0
    6.0000   -7.7942    0.0000 C   0  0  0  0  0  0  0  0  0  0  0  0
    3.7500   -6.4952    0.0000 C   0  0  0  0  0  0  0  0  0  0  0  0
    3.7500   -3.8971    0.0000 C   0  0  0  0  0  0  0  0  0  0  0  0
    3.0000   -2.5981    0.0000 O   0  0  0  0  0  0  0  0  0  0  0  0
    3.0000   -5.1962    0.0000 N   0  0  0  0  0  0  0  0  0  0  0  0
    1.5000   -5.1962    0.0000 C   0  0  0  0  0  0  0  0  0  0  0  0
    0.7500   -6.4952    0.0000 C   0  0  0  0  0  0  0  0  0  0  0  0
   -0.7500   -6.4952    0.0000 C   0  0  0  0  0  0  0  0  0  0  0  0
   -2.2500   -6.4952    0.0000 C   0  0  0  0  0  0  0  0  0  0  0  0
    0.7500   -3.8971    0.0000 C   0  0  0  0  0  0  0  0  0  0  0  0
    1.5000   -2.5981    0.0000 O   0  0  0  0  0  0  0  0  0  0  0  0
   -0.7500   -3.8971    0.0000 O   0  0  0  0  0  0  0  0  0  0  0  0
  2  1  1  1
  2  3  1  0
  3  4  1  0
  4  5  2  0
  5  6  1  0
  6  7  2  0
  7  8  1  0
  8  9  2  0
  2 10  1  0
 10 11  2  0
 10 12  1  0
 12 13  1  0
 12 14  1  0
 14 15  1  6
 15 16  1  0
 16 17  1  0
 16 18  1  0
 14 19  1  0
 19 20  2  0
 19 21  1  0
 21 22  1  0
 22 23  1  1
 23 24  1  0
 24 25  3  0
 22 26  1  0
 26 27  2  0
 26 28  1  0
  9  4  1  0
M  END
$$$$

     RDKit          2D

 29 29  0  0  0  0  0  0  0  0999 V2000
    7.5000    0.0000    0.0000 N   0  0  0  0  0  0  0  0  0  0  0  0
    6.0000    0.0000    0.0000 C   0  0  0  0  0  0  0  0  0  0  0  0
    8.2500   -1.2990    0.0000 C   0  0  0  0  0  0  0  0  0  0  0  0
    9.7500   -1.2990    0.0000 C   0  0  0  0  0  0  0  0  0  0  0  0
   10.5000    0.0000    0.0000 C   0  0  0  0  0  0  0  0  0  0  0  0
    9.7500    1.2990    0.0000 C   0  0  0  0  0  0  0  0  0  0  0  0
   10.5000    2.5981    0.0000 C   0  0  0  0  0  0  0  0  0  0  0  0
   12.0000    2.5981    0.0000 C   0  0  0  0  0  0  0  0  0  0  0  0
   12.7500    1.2990    0.0000 C   0  0  0  0  0  0  0  0  0  0  0  0
   12.0000    0.0000    0.0000 C   0  0  0  0  0  0  0  0  0  0  0  0
    7.5000   -2.5981    0.0000 C   0  0  0  0  0  0  0  0  0  0  0  0
    8.2500   -3.8971    0.0000 O   0  0  0  0  0  0  0  0  0  0  0  0
    6.0000   -2.5981    0.0000 N   0  0  0  0  0  0  0  0  0  0  0  0
    5.2500   -1.2990    0.0000 C   0  0  0  0  0  0  0  0  0  0  0  0
    5.2500   -3.8971    0.0000 C   0  0  0  0  0  0  0  0  0  0  0  0
    6.0000   -5.1962    0.0000 C   0  0  0  0  0  0  0  0  0  0  0  0
    5.2500   -6.4952    0.0000 C   0  0  0  0  0  0  0  0  0  0  0  0
    6.0000   -7.7942    0.0000 C   0  0  0  0  0  0  0  0  0  0  0  0
    3.7500   -6.4952    0.0000 C   0  0  0  0  0  0  0  0  0  0  0  0
    3.7500   -3.8971    0.0000 C   0  0  0  0  0  0  0  0  0  0  0  0
    3.0000   -2.5981    0.0000 O   0  0  0  0  0  0  0  0  0  0  0  0
    3.0000   -5.1962    0.0000 N   0  0  0  0  0  0  0  0  0  0  0  0
    1.5000   -5.1962    0.0000 C   0  0  0  0  0  0  0  0  0  0  0  0
    0.7500   -6.4952    0.0000 C   0  0  0  0  0  0  0  0  0  0  0  0
   -0.7500   -6.4952    0.0000 C   0  0  0  0  0  0  0  0  0  0  0  0
   -2.2500   -6.4952    0.0000 C   0  0  0  0  0  0  0  0  0  0  0  0
    0.7500   -3.8971    0.0000 C   0  0  0  0  0  0  0  0  0  0  0  0
    1.5000   -2.5981    0.0000 O   0  0  0  0  0  0  0  0  0  0  0  0
   -0.7500   -3.8971    0.0000 O   0  0  0  0  0  0  0  0  0  0  0  0
  1  2  1  0
  1  3  1  0
  3  4  1  1
  4  5  1  0
  5  6  2  0
  6  7  1  0
  7  8  2  0
  8  9  1  0
  9 10  2  0
  3 11  1  0
 11 12  2  0
 11 13  1  0
 13 14  1  0
 13 15  1  0
 15 16  1  6
 16 17  1  0
 17 18  1  0
 17 19  1  0
 15 20  1  0
 20 21  2  0
 20 22  1  0
 22 23  1  0
 23 24  1  1
 24 25  1  0
 25 26  3  0
 23 27  1  0
 27 28  2  0
 27 29  1  0
 10  5  1  0
M  END
$$$$

     RDKit          2D

 29 29  0  0  0  0  0  0  0  0999 V2000
    7.5000    0.0000    0.0000 N   0  0  0  0  0  0  0  0  0  0  0  0
    6.0000    0.0000    0.0000 C   0  0  0  0  0  0  0  0  0  0  0  0
    8.2500   -1.2990    0.0000 C   0  0  0  0  0  0  0  0  0  0  0  0
    9.7500   -1.2990    0.0000 C   0  0  0  0  0  0  0  0  0  0  0  0
   10.5000    0.0000    0.0000 C   0  0  0  0  0  0  0  0  0  0  0  0
    9.7500    1.2990    0.0000 C   0  0  0  0  0  0  0  0  0  0  0  0
   10.5000    2.5981    0.0000 C   0  0  0  0  0  0  0  0  0  0  0  0
   12.0000    2.5981    0.0000 C   0  0  0  0  0  0  0  0  0  0  0  0
   12.7500    1.2990    0.0000 C   0  0  0  0  0  0  0  0  0  0  0  0
   12.0000    0.0000    0.0000 C   0  0  0  0  0  0  0  0  0  0  0  0
    7.5000   -2.5981    0.0000 C   0  0  0  0  0  0  0  0  0  0  0  0
    8.2500   -3.8971    0.0000 O   0  0  0  0  0  0  0  0  0  0  0  0
    6.0000   -2.5981    0.0000 N   0  0  0  0  0  0  0  0  0  0  0  0
    5.2500   -1.2990    0.0000 C   0  0  0  0  0  0  0  0  0  0  0  0
    5.2500   -3.8971    0.0000 C   0  0  0  0  0  0  0  0  0  0  0  0
    6.0000   -5.1962    0.0000 C   0  0  0  0  0  0  0  0  0  0  0  0
    5.2500   -6.4952    0.0000 C   0  0  0  0  0  0  0  0  0  0  0  0
    6.0000   -7.7942    0.0000 C   0  0  0  0  0  0  0  0  0  0  0  0
    3.7500   -6.4952    0.0000 C   0  0  0  0  0  0  0  0  0  0  0  0
    3.7500   -3.8971    0.0000 C   0  0  0  0  0  0  0  0  0  0  0  0
    3.0000   -2.5981    0.0000 O   0  0  0  0  0  0  0  0  0  0  0  0
    3.0000   -5.1962    0.0000 N   0  0  0  0  0  0  0  0  0  0  0  0
    1.5000   -5.1962    0.0000 C   0  0  0  0  0  0  0  0  0  0  0  0
    0.7500   -6.4952    0.0000 C   0  0  0  0  0  0  0  0  0  0  0  0
   -0.7500   -6.4952    0.0000 C   0  0  0  0  0  0  0  0  0  0  0  0
   -2.2500   -6.4952    0.0000 C   0  0  0  0  0  0  0  0  0  0  0  0
    0.7500   -3.8971    0.0000 C   0  0  0  0  0  0  0  0  0  0  0  0
    1.5000   -2.5981    0.0000 O   0  0  0  0  0  0  0  0  0  0  0  0
   -0.7500   -3.8971    0.0000 O   0  0  0  0  0  0  0  0  0  0  0  0
  1  2  1  0
  1  3  1  0
  3  4  1  6
  4  5  1  0
  5  6  2  0
  6  7  1  0
  7  8  2  0
  8  9  1  0
  9 10  2  0
  3 11  1  0
 11 12  2  0
 11 13  1  0
 13 14  1  0
 13 15  1  0
 15 16  1  6
 16 17  1  0
 17 18  1  0
 17 19  1  0
 15 20  1  0
 20 21  2  0
 20 22  1  0
 22 23  1  0
 23 24  1  1
 24 25  1  0
 25 26  3  0
 23 27  1  0
 27 28  2  0
 27 29  1  0
 10  5  1  0
M  END
$$$$

     RDKit          2D

 24 23  0  0  0  0  0  0  0  0999 V2000
    7.7942   -1.5000    0.0000 N   0  0  0  0  0  0  0  0  0  0  0  0
    7.7942   -0.0000    0.0000 C   0  0  0  0  0  0  0  0  0  0  0  0
    9.0933    0.7500    0.0000 C   0  0  0  0  0  0  0  0  0  0  0  0
    9.0933    2.2500    0.0000 O   0  0  0  0  0  0  0  0  0  0  0  0
   10.3923   -0.0000    0.0000 C   0  0  0  0  0  0  0  0  0  0  0  0
    6.4952    0.7500    0.0000 C   0  0  0  0  0  0  0  0  0  0  0  0
    6.4952    2.2500    0.0000 O   0  0  0  0  0  0  0  0  0  0  0  0
    5.1962   -0.0000    0.0000 N   0  0  0  0  0  0  0  0  0  0  0  0
    3.8971    0.7500    0.0000 C   0  0  0  0  0  0  0  0  0  0  0  0
    5.1962   -1.5000    0.0000 C   0  0  0  0  0  0  0  0  0  0  0  0
    6.4952   -2.2500    0.0000 C   0  0  0  0  0  0  0  0  0  0  0  0
    6.4952   -3.7500    0.0000 C   0  0  0  0  0  0  0  0  0  0  0  0
    7.7942   -4.5000    0.0000 C   0  0  0  0  0  0  0  0  0  0  0  0
    5.1962   -4.5000    0.0000 C   0  0  0  0  0  0  0  0  0  0  0  0
    3.8971   -2.2500    0.0000 C   0  0  0  0  0  0  0  0  0  0  0  0
    2.5981   -1.5000    0.0000 O   0  0  0  0  0  0  0  0  0  0  0  0
    3.8971   -3.7500    0.0000 N   0  0  0  0  0  0  0  0  0  0  0  0
    2.5981   -4.5000    0.0000 C   0  0  0  0  0  0  0  0  0  0  0  0
    2.5981   -6.0000    0.0000 C   0  0  0  0  0  0  0  0  0  0  0  0
    1.2990   -6.7500    0.0000 C   0  0  0  0  0  0  0  0  0  0  0  0
   -0.0000   -7.5000    0.0000 C   0  0  0  0  0  0  0  0  0  0  0  0
    1.2990   -3.7500    0.0000 C   0  0  0  0  0  0  0  0  0  0  0  0
    1.2990   -2.2500    0.0000 O   0  0  0  0  0  0  0  0  0  0  0  0
   -0.0000   -4.5000    0.0000 O   0  0  0  0  0  0  0  0  0  0  0  0
  2  1  1  6
  2  3  1  0
  3  4  1  0
  3  5  1  6
  2  6  1  0
  6  7  2  0
  6  8  1  0
  8  9  1  0
  8 10  1  0
 10 11  1  6
 11 12  1  0
 12 13  1  0
 12 14  1  0
 10 15  1  0
 15 16  2  0
 15 17  1  0
 17 18  1  0
 18 19  1  1
 19 20  1  0
 20 21  3  0
 18 22  1  0
 22 23  2  0
 22 24  1  0
M  END
$$$$

     RDKit          2D

 24 23  0  0  0  0  0  0  0  0999 V2000
    7.7942   -1.5000    0.0000 N   0  0  0  0  0  0  0  0  0  0  0  0
    7.7942   -0.0000    0.0000 C   0  0  0  0  0  0  0  0  0  0  0  0
    9.0933    0.7500    0.0000 C   0  0  0  0  0  0  0  0  0  0  0  0
    9.0933    2.2500    0.0000 O   0  0  0  0  0  0  0  0  0  0  0  0
   10.3923   -0.0000    0.0000 C   0  0  0  0  0  0  0  0  0  0  0  0
    6.4952    0.7500    0.0000 C   0  0  0  0  0  0  0  0  0  0  0  0
    6.4952    2.2500    0.0000 O   0  0  0  0  0  0  0  0  0  0  0  0
    5.1962   -0.0000    0.0000 N   0  0  0  0  0  0  0  0  0  0  0  0
    3.8971    0.7500    0.0000 C   0  0  0  0  0  0  0  0  0  0  0  0
    5.1962   -1.5000    0.0000 C   0  0  0  0  0  0  0  0  0  0  0  0
    6.4952   -2.2500    0.0000 C   0  0  0  0  0  0  0  0  0  0  0  0
    6.4952   -3.7500    0.0000 C   0  0  0  0  0  0  0  0  0  0  0  0
    7.7942   -4.5000    0.0000 C   0  0  0  0  0  0  0  0  0  0  0  0
    5.1962   -4.5000    0.0000 C   0  0  0  0  0  0  0  0  0  0  0  0
    3.8971   -2.2500    0.0000 C   0  0  0  0  0  0  0  0  0  0  0  0
    2.5981   -1.5000    0.0000 O   0  0  0  0  0  0  0  0  0  0  0  0
    3.8971   -3.7500    0.0000 N   0  0  0  0  0  0  0  0  0  0  0  0
    2.5981   -4.5000    0.0000 C   0  0  0  0  0  0  0  0  0  0  0  0
    2.5981   -6.0000    0.0000 C   0  0  0  0  0  0  0  0  0  0  0  0
    1.2990   -6.7500    0.0000 C   0  0  0  0  0  0  0  0  0  0  0  0
   -0.0000   -7.5000    0.0000 C   0  0  0  0  0  0  0  0  0  0  0  0
    1.2990   -3.7500    0.0000 C   0  0  0  0  0  0  0  0  0  0  0  0
    1.2990   -2.2500    0.0000 O   0  0  0  0  0  0  0  0  0  0  0  0
   -0.0000   -4.5000    0.0000 O   0  0  0  0  0  0  0  0  0  0  0  0
  2  1  1  1
  2  3  1  0
  3  4  1  0
  3  5  1  6
  2  6  1  0
  6  7  2  0
  6  8  1  0
  8  9  1  0
  8 10  1  0
 10 11  1  6
 11 12  1  0
 12 13  1  0
 12 14  1  0
 10 15  1  0
 15 16  2  0
 15 17  1  0
 17 18  1  0
 18 19  1  1
 19 20  1  0
 20 21  3  0
 18 22  1  0
 22 23  2  0
 22 24  1  0
M  END
$$$$

     RDKit          2D

 25 24  0  0  0  0  0  0  0  0999 V2000
    2.5981   -6.0000    0.0000 N   0  0  0  0  0  0  0  0  0  0  0  0
    3.8971   -6.7500    0.0000 C   0  0  0  0  0  0  0  0  0  0  0  0
    2.5981   -4.5000    0.0000 C   0  0  0  0  0  0  0  0  0  0  0  0
    1.2990   -3.7500    0.0000 C   0  0  0  0  0  0  0  0  0  0  0  0
   -0.0000   -4.5000    0.0000 O   0  0  0  0  0  0  0  0  0  0  0  0
    1.2990   -2.2500    0.0000 C   0  0  0  0  0  0  0  0  0  0  0  0
    3.8971   -3.7500    0.0000 C   0  0  0  0  0  0  0  0  0  0  0  0
    5.1962   -4.5000    0.0000 O   0  0  0  0  0  0  0  0  0  0  0  0
    3.8971   -2.2500    0.0000 N   0  0  0  0  0  0  0  0  0  0  0  0
    2.5981   -1.5000    0.0000 C   0  0  0  0  0  0  0  0  0  0  0  0
    5.1962   -1.5000    0.0000 C   0  0  0  0  0  0  0  0  0  0  0  0
    6.4952   -2.2500    0.0000 C   0  0  0  0  0  0  0  0  0  0  0  0
    7.7942   -1.5000    0.0000 C   0  0  0  0  0  0  0  0  0  0  0  0
    9.0933   -2.2500    0.0000 C   0  0  0  0  0  0  0  0  0  0  0  0
    7.7942    0.0000    0.0000 C   0  0  0  0  0  0  0  0  0  0  0  0
    5.1962    0.0000    0.0000 C   0  0  0  0  0  0  0  0  0  0  0  0
    3.8971    0.7500    0.0000 O   0  0  0  0  0  0  0  0  0  0  0  0
    6.4952    0.7500    0.0000 N   0  0  0  0  0  0  0  0  0  0  0  0
    6.4952    2.2500    0.0000 C   0  0  0  0  0  0  0  0  0  0  0  0
    7.7942    3.0000    0.0000 C   0  0  0  0  0  0  0  0  0  0  0  0
    7.7942    4.5000    0.0000 C   0  0  0  0  0  0  0  0  0  0  0  0
    7.7942    6.0000    0.0000 C   0  0  0  0  0  0  0  0  0  0  0  0
    5.1962    3.0000    0.0000 C   0  0  0  0  0  0  0  0  0  0  0  0
    3.8971    2.2500    0.0000 O   0  0  0  0  0  0  0  0  0  0  0  0
    5.1962    4.5000    0.0000 O   0  0  0  0  0  0  0  0  0  0  0  0
  1  2  1  0
  3  1  1  1
  3  4  1  0
  4  5  1  0
  4  6  1  6
  3  7  1  0
  7  8  2  0
  7  9  1  0
  9 10  1  0
  9 11  1  0
 11 12  1  1
 12 13  1  0
 13 14  1  0
 13 15  1  0
 11 16  1  0
 16 17  2  0
 16 18  1  0
 18 19  1  0
 19 20  1  6
 20 21  1  0
 21 22  3  0
 19 23  1  0
 23 24  2  0
 23 25  1  0
M  END
$$$$

     RDKit          2D

 25 24  0  0  0  0  0  0  0  0999 V2000
    2.5981   -6.0000    0.0000 N   0  0  0  0  0  0  0  0  0  0  0  0
    3.8971   -6.7500    0.0000 C   0  0  0  0  0  0  0  0  0  0  0  0
    2.5981   -4.5000    0.0000 C   0  0  0  0  0  0  0  0  0  0  0  0
    1.2990   -3.7500    0.0000 C   0  0  0  0  0  0  0  0  0  0  0  0
   -0.0000   -4.5000    0.0000 O   0  0  0  0  0  0  0  0  0  0  0  0
    1.2990   -2.2500    0.0000 C   0  0  0  0  0  0  0  0  0  0  0  0
    3.8971   -3.7500    0.0000 C   0  0  0  0  0  0  0  0  0  0  0  0
    5.1962   -4.5000    0.0000 O   0  0  0  0  0  0  0  0  0  0  0  0
    3.8971   -2.2500    0.0000 N   0  0  0  0  0  0  0  0  0  0  0  0
    2.5981   -1.5000    0.0000 C   0  0  0  0  0  0  0  0  0  0  0  0
    5.1962   -1.5000    0.0000 C   0  0  0  0  0  0  0  0  0  0  0  0
    6.4952   -2.2500    0.0000 C   0  0  0  0  0  0  0  0  0  0  0  0
    7.7942   -1.5000    0.0000 C   0  0  0  0  0  0  0  0  0  0  0  0
    9.0933   -2.2500    0.0000 C   0  0  0  0  0  0  0  0  0  0  0  0
    7.7942    0.0000    0.0000 C   0  0  0  0  0  0  0  0  0  0  0  0
    5.1962    0.0000    0.0000 C   0  0  0  0  0  0  0  0  0  0  0  0
    3.8971    0.7500    0.0000 O   0  0  0  0  0  0  0  0  0  0  0  0
    6.4952    0.7500    0.0000 N   0  0  0  0  0  0  0  0  0  0  0  0
    6.4952    2.2500    0.0000 C   0  0  0  0  0  0  0  0  0  0  0  0
    7.7942    3.0000    0.0000 C   0  0  0  0  0  0  0  0  0  0  0  0
    7.7942    4.5000    0.0000 C   0  0  0  0  0  0  0  0  0  0  0  0
    7.7942    6.0000    0.0000 C   0  0  0  0  0  0  0  0  0  0  0  0
    5.1962    3.0000    0.0000 C   0  0  0  0  0  0  0  0  0  0  0  0
    3.8971    2.2500    0.0000 O   0  0  0  0  0  0  0  0  0  0  0  0
    5.1962    4.5000    0.0000 O   0  0  0  0  0  0  0  0  0  0  0  0
  1  2  1  0
  3  1  1  6
  3  4  1  0
  4  5  1  0
  4  6  1  6
  3  7  1  0
  7  8  2  0
  7  9  1  0
  9 10  1  0
  9 11  1  0
 11 12  1  1
 12 13  1  0
 13 14  1  0
 13 15  1  0
 11 16  1  0
 16 17  2  0
 16 18  1  0
 18 19  1  0
 19 20  1  6
 20 21  1  0
 21 22  3  0
 19 23  1  0
 23 24  2  0
 23 25  1  0
M  END
$$$$

     RDKit          2D

 25 24  0  0  0  0  0  0  0  0999 V2000
    2.5981    3.0000    0.0000 N   0  0  0  0  0  0  0  0  0  0  0  0
    1.2990    2.2500    0.0000 C   0  0  0  0  0  0  0  0  0  0  0  0
    1.2990    0.7500    0.0000 C   0  0  0  0  0  0  0  0  0  0  0  0
    0.0000    0.0000    0.0000 C   0  0  0  0  0  0  0  0  0  0  0  0
    2.5981   -0.0000    0.0000 C   0  0  0  0  0  0  0  0  0  0  0  0
    2.5981    4.5000    0.0000 C   0  0  0  0  0  0  0  0  0  0  0  0
    3.8971    5.2500    0.0000 C   0  0  0  0  0  0  0  0  0  0  0  0
    5.1962    4.5000    0.0000 O   0  0  0  0  0  0  0  0  0  0  0  0
    3.8971    6.7500    0.0000 N   0  0  0  0  0  0  0  0  0  0  0  0
    5.1962    7.5000    0.0000 C   0  0  0  0  0  0  0  0  0  0  0  0
    2.5981    7.5000    0.0000 C   0  0  0  0  0  0  0  0  0  0  0  0
    2.5981    9.0000    0.0000 C   0  0  0  0  0  0  0  0  0  0  0  0
    1.2990    9.7500    0.0000 C   0  0  0  0  0  0  0  0  0  0  0  0
    1.2990   11.2500    0.0000 C   0  0  0  0  0  0  0  0  0  0  0  0
    0.0000    9.0000    0.0000 C   0  0  0  0  0  0  0  0  0  0  0  0
    1.2990    6.7500    0.0000 C   0  0  0  0  0  0  0  0  0  0  0  0
    1.2990    5.2500    0.0000 O   0  0  0  0  0  0  0  0  0  0  0  0
    0.0000    7.5000    0.0000 N   0  0  0  0  0  0  0  0  0  0  0  0
   -1.2990    6.7500    0.0000 C   0  0  0  0  0  0  0  0  0  0  0  0
   -2.5981    7.5000    0.0000 C   0  0  0  0  0  0  0  0  0  0  0  0
   -3.8971    6.7500    0.0000 C   0  0  0  0  0  0  0  0  0  0  0  0
   -5.1962    6.0000    0.0000 C   0  0  0  0  0  0  0  0  0  0  0  0
   -1.2990    5.2500    0.0000 C   0  0  0  0  0  0  0  0  0  0  0  0
    0.0000    4.5000    0.0000 O   0  0  0  0  0  0  0  0  0  0  0  0
   -2.5981    4.5000    0.0000 O   0  0  0  0  0  0  0  0  0  0  0  0
  1  2  1  0
  2  3  1  0
  3  4  1  0
  3  5  1  0
  1  6  1  0
  6  7  1  0
  7  8  2  0
  7  9  1  0
  9 10  1  0
  9 11  1  0
 11 12  1  1
 12 13  1  0
 13 14  1  0
 13 15  1  0
 11 16  1  0
 16 17  2  0
 16 18  1  0
 18 19  1  0
 19 20  1  6
 20 21  1  0
 21 22  3  0
 19 23  1  0
 23 24  2  0
 23 25  1  0
M  END
$$$$

     RDKit          2D

 28 27  0  0  0  0  0  0  0  0999 V2000
    3.8971    6.7500    0.0000 N   0  0  0  0  0  0  0  0  0  0  0  0
    3.8971    5.2500    0.0000 C   0  0  0  0  0  0  0  0  0  0  0  0
    2.5981    4.5000    0.0000 C   0  0  0  0  0  0  0  0  0  0  0  0
    2.5981    3.0000    0.0000 C   0  0  0  0  0  0  0  0  0  0  0  0
    1.2990    2.2500    0.0000 O   0  0  0  0  0  0  0  0  0  0  0  0
    1.2990    0.7500    0.0000 C   0  0  0  0  0  0  0  0  0  0  0  0
    0.0000    0.0000    0.0000 C   0  0  0  0  0  0  0  0  0  0  0  0
    2.5981   -0.0000    0.0000 C   0  0  0  0  0  0  0  0  0  0  0  0
    5.1962    7.5000    0.0000 C   0  0  0  0  0  0  0  0  0  0  0  0
    5.1962    9.0000    0.0000 C   0  0  0  0  0  0  0  0  0  0  0  0
    3.8971    9.7500    0.0000 O   0  0  0  0  0  0  0  0  0  0  0  0
    6.4952    9.7500    0.0000 N   0  0  0  0  0  0  0  0  0  0  0  0
    6.4952   11.2500    0.0000 C   0  0  0  0  0  0  0  0  0  0  0  0
    7.7942    9.0000    0.0000 C   0  0  0  0  0  0  0  0  0  0  0  0
    9.0933    9.7500    0.0000 C   0  0  0  0  0  0  0  0  0  0  0  0
   10.3923    9.0000    0.0000 C   0  0  0  0  0  0  0  0  0  0  0  0
   11.6913    9.7500    0.0000 C   0  0  0  0  0  0  0  0  0  0  0  0
   10.3923    7.5000    0.0000 C   0  0  0  0  0  0  0  0  0  0  0  0
    7.7942    7.5000    0.0000 C   0  0  0  0  0  0  0  0  0  0  0  0
    6.4952    6.7500    0.0000 O   0  0  0  0  0  0  0  0  0  0  0  0
    9.0933    6.7500    0.0000 N   0  0  0  0  0  0  0  0  0  0  0  0
    9.0933    5.2500    0.0000 C   0  0  0  0  0  0  0  0  0  0  0  0
   10.3923    4.5000    0.0000 C   0  0  0  0  0  0  0  0  0  0  0  0
   10.3923    3.0000    0.0000 C   0  0  0  0  0  0  0  0  0  0  0  0
   10.3923    1.5000    0.0000 C   0  0  0  0  0  0  0  0  0  0  0  0
    7.7942    4.5000    0.0000 C   0  0  0  0  0  0  0  0  0  0  0  0
    6.4952    5.2500    0.0000 O   0  0  0  0  0  0  0  0  0  0  0  0
    7.7942    3.0000    0.0000 O   0  0  0  0  0  0  0  0  0  0  0  0
  1  2  1  0
  2  3  1  0
  3  4  1  0
  4  5  1  0
  5  6  1  0
  6  7  1  0
  6  8  1  0
  1  9  1  0
  9 10  1  0
 10 11  2  0
 10 12  1  0
 12 13  1  0
 12 14  1  0
 14 15  1  6
 15 16  1  0
 16 17  1  0
 16 18  1  0
 14 19  1  0
 19 20  2  0
 19 21  1  0
 21 22  1  0
 22 23  1  1
 23 24  1  0
 24 25  3  0
 22 26  1  0
 26 27  2  0
 26 28  1  0
M  END
$$$$

     RDKit          2D

 30 30  0  0  0  0  0  0  0  0999 V2000
    6.0000   -2.5981    0.0000 N   0  0  0  0  0  0  0  0  0  0  0  0
    5.2500   -1.2990    0.0000 C   0  0  0  0  0  0  0  0  0  0  0  0
    3.7500   -1.2990    0.0000 C   0  0  0  0  0  0  0  0  0  0  0  0
    3.0000    0.0000    0.0000 O   0  0  0  0  0  0  0  0  0  0  0  0
    1.5000    0.0000    0.0000 C   0  0  0  0  0  0  0  0  0  0  0  0
    0.7500   -1.2990    0.0000 C   0  0  0  0  0  0  0  0  0  0  0  0
   -0.7500   -1.2990    0.0000 C   0  0  0  0  0  0  0  0  0  0  0  0
   -1.5000    0.0000    0.0000 C   0  0  0  0  0  0  0  0  0  0  0  0
   -0.7500    1.2990    0.0000 C   0  0  0  0  0  0  0  0  0  0  0  0
    0.7500    1.2990    0.0000 C   0  0  0  0  0  0  0  0  0  0  0  0
    7.5000   -2.5981    0.0000 C   0  0  0  0  0  0  0  0  0  0  0  0
    8.2500   -3.8971    0.0000 C   0  0  0  0  0  0  0  0  0  0  0  0
    7.5000   -5.1962    0.0000 O   0  0  0  0  0  0  0  0  0  0  0  0
    9.7500   -3.8971    0.0000 N   0  0  0  0  0  0  0  0  0  0  0  0
   10.5000   -5.1962    0.0000 C   0  0  0  0  0  0  0  0  0  0  0  0
   10.5000   -2.5981    0.0000 C   0  0  0  0  0  0  0  0  0  0  0  0
   12.0000   -2.5981    0.0000 C   0  0  0  0  0  0  0  0  0  0  0  0
   12.7500   -1.2990    0.0000 C   0  0  0  0  0  0  0  0  0  0  0  0
   14.2500   -1.2990    0.0000 C   0  0  0  0  0  0  0  0  0  0  0  0
   12.0000    0.0000    0.0000 C   0  0  0  0  0  0  0  0  0  0  0  0
    9.7500   -1.2990    0.0000 C   0  0  0  0  0  0  0  0  0  0  0  0
    8.2500   -1.2990    0.0000 O   0  0  0  0  0  0  0  0  0  0  0  0
   10.5000    0.0000    0.0000 N   0  0  0  0  0  0  0  0  0  0  0  0
    9.7500    1.2990    0.0000 C   0  0  0  0  0  0  0  0  0  0  0  0
   10.5000    2.5981    0.0000 C   0  0  0  0  0  0  0  0  0  0  0  0
    9.7500    3.8971    0.0000 C   0  0  0  0  0  0  0  0  0  0  0  0
    9.0000    5.1962    0.0000 C   0  0  0  0  0  0  0  0  0  0  0  0
    8.2500    1.2990    0.0000 C   0  0  0  0  0  0  0  0  0  0  0  0
    7.5000    0.0000    0.0000 O   0  0  0  0  0  0  0  0  0  0  0  0
    7.5000    2.5981    0.0000 O   0  0  0  0  0  0  0  0  0  0  0  0
  1  2  1  0
  2  3  1  0
  3  4  1  0
  4  5  1  0
  5  6  2  0
  6  7  1  0
  7  8  2  0
  8  9  1  0
  9 10  2  0
  1 11  1  0
 11 12  1  0
 12 13  2  0
 12 14  1  0
 14 15  1  0
 14 16  1  0
 16 17  1  1
 17 18  1  0
 18 19  1  0
 18 20  1  0
 16 21  1  0
 21 22  2  0
 21 23  1  0
 23 24  1  0
 24 25  1  6
 25 26  1  0
 26 27  3  0
 24 28  1  0
 28 29  2  0
 28 30  1  0
 10  5  1  0
M  END
$$$$

     RDKit          2D

 33 33  0  0  0  0  0  0  0  0999 V2000
    5.2500   -1.2990    0.0000 N   0  0  0  0  0  0  0  0  0  0  0  0
    3.7500   -1.2990    0.0000 C   0  0  0  0  0  0  0  0  0  0  0  0
    3.0000    0.0000    0.0000 C   0  0  0  0  0  0  0  0  0  0  0  0
    1.5000    0.0000    0.0000 C   0  0  0  0  0  0  0  0  0  0  0  0
    0.7500   -1.2990    0.0000 C   0  0  0  0  0  0  0  0  0  0  0  0
   -0.7500   -1.2990    0.0000 C   0  0  0  0  0  0  0  0  0  0  0  0
   -1.5000    0.0000    0.0000 C   0  0  0  0  0  0  0  0  0  0  0  0
   -0.7500    1.2990    0.0000 C   0  0  0  0  0  0  0  0  0  0  0  0
   -1.5000    2.5981    0.0000 O   0  0  0  0  0  0  0  0  0  0  0  0
   -0.7500    3.8971    0.0000 C   0  0  0  0  0  0  0  0  0  0  0  0
    0.7500    1.2990    0.0000 C   0  0  0  0  0  0  0  0  0  0  0  0
   -3.0000    0.0000    0.0000 O   0  0  0  0  0  0  0  0  0  0  0  0
   -3.7500    1.2990    0.0000 C   0  0  0  0  0  0  0  0  0  0  0  0
    6.0000   -2.5981    0.0000 C   0  0  0  0  0  0  0  0  0  0  0  0
    7.5000   -2.5981    0.0000 C   0  0  0  0  0  0  0  0  0  0  0  0
    8.2500   -1.2990    0.0000 O   0  0  0  0  0  0  0  0  0  0  0  0
    8.2500   -3.8971    0.0000 N   0  0  0  0  0  0  0  0  0  0  0  0
    9.7500   -3.8971    0.0000 C   0  0  0  0  0  0  0  0  0  0  0  0
    7.5000   -5.1962    0.0000 C   0  0  0  0  0  0  0  0  0  0  0  0
    8.2500   -6.4952    0.0000 C   0  0  0  0  0  0  0  0  0  0  0  0
    7.5000   -7.7942    0.0000 C   0  0  0  0  0  0  0  0  0  0  0  0
    8.2500   -9.0933    0.0000 C   0  0  0  0  0  0  0  0  0  0  0  0
    6.0000   -7.7942    0.0000 C   0  0  0  0  0  0  0  0  0  0  0  0
    6.0000   -5.1962    0.0000 C   0  0  0  0  0  0  0  0  0  0  0  0
    5.2500   -3.8971    0.0000 O   0  0  0  0  0  0  0  0  0  0  0  0
    5.2500   -6.4952    0.0000 N   0  0  0  0  0  0  0  0  0  0  0  0
    3.7500   -6.4952    0.0000 C   0  0  0  0  0  0  0  0  0  0  0  0
    3.0000   -7.7942    0.0000 C   0  0  0  0  0  0  0  0  0  0  0  0
    1.5000   -7.7942    0.0000 C   0  0  0  0  0  0  0  0  0  0  0  0
    0.0000   -7.7942    0.0000 C   0  0  0  0  0  0  0  0  0  0  0  0
    3.0000   -5.1962    0.0000 C   0  0  0  0  0  0  0  0  0  0  0  0
    3.7500   -3.8971    0.0000 O   0  0  0  0  0  0  0  0  0  0  0  0
    1.5000   -5.1962    0.0000 O   0  0  0  0  0  0  0  0  0  0  0  0
  1  2  1  0
  2  3  1  0
  3  4  1  0
  4  5  2  0
  5  6  1  0
  6  7  2  0
  7  8  1  0
  8  9  1  0
  9 10  1  0
  8 11  2  0
  7 12  1  0
 12 13  1  0
  1 14  1  0
 14 15  1  0
 15 16  2  0
 15 17  1  0
 17 18  1  0
 17 19  1  0
 19 20  1  6
 20 21  1  0
 21 22  1  0
 21 23  1  0
 19 24  1  0
 24 25  2  0
 24 26  1  0
 26 27  1  0
 27 28  1  1
 28 29  1  0
 29 30  3  0
 27 31  1  0
 31 32  2  0
 31 33  1  0
 11  4  1  0
M  END
$$$$

     RDKit          2D

 40 40  0  0  0  0  0  0  0  0999 V2000
    1.2760    5.1962    0.0000 N   0  0  0  0  0  0  0  0  0  0  0  0
    2.7760    5.1962    0.0000 C   0  0  0  0  0  0  0  0  0  0  0  0
    3.5260    6.4952    0.0000 C   0  0  0  0  0  0  0  0  0  0  0  0
    2.7760    7.7942    0.0000 C   0  0  0  0  0  0  0  0  0  0  0  0
    3.5260    9.0933    0.0000 C   0  0  0  0  0  0  0  0  0  0  0  0
    1.2760    7.7942    0.0000 C   0  0  0  0  0  0  0  0  0  0  0  0
    3.5260    3.8971    0.0000 C   0  0  0  0  0  0  0  0  0  0  0  0
    5.0260    3.8971    0.0000 O   0  0  0  0  0  0  0  0  0  0  0  0
    2.7760    2.5981    0.0000 N   0  0  0  0  0  0  0  0  0  0  0  0
    3.5260    1.2990    0.0000 C   0  0  0  0  0  0  0  0  0  0  0  0
    5.0260    1.2990    0.0000 C   0  0  0  0  0  0  0  0  0  0  0  0
    5.7760    0.0000    0.0000 C   0  0  0  0  0  0  0  0  0  0  0  0
    7.2760    0.0000    0.0000 C   0  0  0  0  0  0  0  0  0  0  0  0
    5.0260   -1.2990    0.0000 C   0  0  0  0  0  0  0  0  0  0  0  0
    2.7760    0.0000    0.0000 C   0  0  0  0  0  0  0  0  0  0  0  0
    3.5260   -1.2990    0.0000 O   0  0  0  0  0  0  0  0  0  0  0  0
    1.2760    0.0000    0.0000 N   0  0  0  0  0  0  0  0  0  0  0  0
    0.3943    1.2135    0.0000 C   0  0  0  0  0  0  0  0  0  0  0  0
   -1.0323    0.7500    0.0000 C   0  0  0  0  0  0  0  0  0  0  0  0
   -1.0323   -0.7500    0.0000 C   0  0  0  0  0  0  0  0  0  0  0  0
    0.3943   -1.2135    0.0000 C   0  0  0  0  0  0  0  0  0  0  0  0
    0.8578   -2.6401    0.0000 C   0  0  0  0  0  0  0  0  0  0  0  0
    2.3250   -2.9520    0.0000 O   0  0  0  0  0  0  0  0  0  0  0  0
   -0.1459   -3.7548    0.0000 N   0  0  0  0  0  0  0  0  0  0  0  0
    0.3177   -5.1814    0.0000 C   0  0  0  0  0  0  0  0  0  0  0  0
   -1.6131   -3.4430    0.0000 C   0  0  0  0  0  0  0  0  0  0  0  0
   -2.0766   -2.0164    0.0000 C   0  0  0  0  0  0  0  0  0  0  0  0
   -3.5438   -1.7045    0.0000 C   0  0  0  0  0  0  0  0  0  0  0  0
   -4.0074   -0.2779    0.0000 C   0  0  0  0  0  0  0  0  0  0  0  0
   -4.5475   -2.8192    0.0000 C   0  0  0  0  0  0  0  0  0  0  0  0
   -2.6168   -4.5577    0.0000 C   0  0  0  0  0  0  0  0  0  0  0  0
   -2.1533   -5.9843    0.0000 O   0  0  0  0  0  0  0  0  0  0  0  0
   -4.0840   -4.2458    0.0000 N   0  0  0  0  0  0  0  0  0  0  0  0
   -5.0877   -5.3605    0.0000 C   0  0  0  0  0  0  0  0  0  0  0  0
   -6.5549   -5.0487    0.0000 C   0  0  0  0  0  0  0  0  0  0  0  0
   -7.5586   -6.1634    0.0000 C   0  0  0  0  0  0  0  0  0  0  0  0
   -8.5623   -7.2781    0.0000 C   0  0  0  0  0  0  0  0  0  0  0  0
   -4.6242   -6.7871    0.0000 C   0  0  0  0  0  0  0  0  0  0  0  0
   -3.1570   -7.0990    0.0000 O   0  0  0  0  0  0  0  0  0  0  0  0
   -5.6279   -7.9018    0.0000 O   0  0  0  0  0  0  0  0  0  0  0  0
  2  1  1  1
  2  3  1  0
  3  4  1  0
  4  5  1  0
  4  6  1  0
  2  7  1  0
  7  8  2  0
  7  9  1  0
  9 10  1  0
 10 11  1  1
 11 12  1  0
 12 13  1  0
 12 14  1  0
 10 15  1  0
 15 16  2  0
 15 17  1  0
 17 18  1  0
 18 19  1  0
 19 20  1  0
 20 21  1  0
 21 22  1  6
 22 23  2  0
 22 24  1  0
 24 25  1  0
 24 26  1  0
 26 27  1  1
 27 28  1  0
 28 29  1  0
 28 30  1  0
 26 31  1  0
 31 32  2  0
 31 33  1  0
 33 34  1  0
 34 35  1  6
 35 36  1  0
 36 37  3  0
 34 38  1  0
 38 39  2  0
 38 40  1  0
 21 17  1  0
M  END
$$$$

     RDKit          2D

 40 40  0  0  0  0  0  0  0  0999 V2000
    1.2760    5.1962    0.0000 N   0  0  0  0  0  0  0  0  0  0  0  0
    2.7760    5.1962    0.0000 C   0  0  0  0  0  0  0  0  0  0  0  0
    3.5260    6.4952    0.0000 C   0  0  0  0  0  0  0  0  0  0  0  0
    2.7760    7.7942    0.0000 C   0  0  0  0  0  0  0  0  0  0  0  0
    3.5260    9.0933    0.0000 C   0  0  0  0  0  0  0  0  0  0  0  0
    1.2760    7.7942    0.0000 C   0  0  0  0  0  0  0  0  0  0  0  0
    3.5260    3.8971    0.0000 C   0  0  0  0  0  0  0  0  0  0  0  0
    5.0260    3.8971    0.0000 O   0  0  0  0  0  0  0  0  0  0  0  0
    2.7760    2.5981    0.0000 N   0  0  0  0  0  0  0  0  0  0  0  0
    3.5260    1.2990    0.0000 C   0  0  0  0  0  0  0  0  0  0  0  0
    5.0260    1.2990    0.0000 C   0  0  0  0  0  0  0  0  0  0  0  0
    5.7760    0.0000    0.0000 C   0  0  0  0  0  0  0  0  0  0  0  0
    7.2760    0.0000    0.0000 C   0  0  0  0  0  0  0  0  0  0  0  0
    5.0260   -1.2990    0.0000 C   0  0  0  0  0  0  0  0  0  0  0  0
    2.7760    0.0000    0.0000 C   0  0  0  0  0  0  0  0  0  0  0  0
    3.5260   -1.2990    0.0000 O   0  0  0  0  0  0  0  0  0  0  0  0
    1.2760    0.0000    0.0000 N   0  0  0  0  0  0  0  0  0  0  0  0
    0.3943    1.2135    0.0000 C   0  0  0  0  0  0  0  0  0  0  0  0
   -1.0323    0.7500    0.0000 C   0  0  0  0  0  0  0  0  0  0  0  0
   -1.0323   -0.7500    0.0000 C   0  0  0  0  0  0  0  0  0  0  0  0
    0.3943   -1.2135    0.0000 C   0  0  0  0  0  0  0  0  0  0  0  0
    0.8578   -2.6401    0.0000 C   0  0  0  0  0  0  0  0  0  0  0  0
    2.3250   -2.9520    0.0000 O   0  0  0  0  0  0  0  0  0  0  0  0
   -0.1459   -3.7548    0.0000 N   0  0  0  0  0  0  0  0  0  0  0  0
    0.3177   -5.1814    0.0000 C   0  0  0  0  0  0  0  0  0  0  0  0
   -1.6131   -3.4430    0.0000 C   0  0  0  0  0  0  0  0  0  0  0  0
   -2.0766   -2.0164    0.0000 C   0  0  0  0  0  0  0  0  0  0  0  0
   -3.5438   -1.7045    0.0000 C   0  0  0  0  0  0  0  0  0  0  0  0
   -4.0074   -0.2779    0.0000 C   0  0  0  0  0  0  0  0  0  0  0  0
   -4.5475   -2.8192    0.0000 C   0  0  0  0  0  0  0  0  0  0  0  0
   -2.6168   -4.5577    0.0000 C   0  0  0  0  0  0  0  0  0  0  0  0
   -2.1533   -5.9843    0.0000 O   0  0  0  0  0  0  0  0  0  0  0  0
   -4.0840   -4.2458    0.0000 N   0  0  0  0  0  0  0  0  0  0  0  0
   -5.0877   -5.3605    0.0000 C   0  0  0  0  0  0  0  0  0  0  0  0
   -6.5549   -5.0487    0.0000 C   0  0  0  0  0  0  0  0  0  0  0  0
   -7.5586   -6.1634    0.0000 C   0  0  0  0  0  0  0  0  0  0  0  0
   -8.5623   -7.2781    0.0000 C   0  0  0  0  0  0  0  0  0  0  0  0
   -4.6242   -6.7871    0.0000 C   0  0  0  0  0  0  0  0  0  0  0  0
   -3.1570   -7.0990    0.0000 O   0  0  0  0  0  0  0  0  0  0  0  0
   -5.6279   -7.9018    0.0000 O   0  0  0  0  0  0  0  0  0  0  0  0
  2  1  1  6
  2  3  1  0
  3  4  1  0
  4  5  1  0
  4  6  1  0
  2  7  1  0
  7  8  2  0
  7  9  1  0
  9 10  1  0
 10 11  1  1
 11 12  1  0
 12 13  1  0
 12 14  1  0
 10 15  1  0
 15 16  2  0
 15 17  1  0
 17 18  1  0
 18 19  1  0
 19 20  1  0
 20 21  1  0
 21 22  1  6
 22 23  2  0
 22 24  1  0
 24 25  1  0
 24 26  1  0
 26 27  1  1
 27 28  1  0
 28 29  1  0
 28 30  1  0
 26 31  1  0
 31 32  2  0
 31 33  1  0
 33 34  1  0
 34 35  1  6
 35 36  1  0
 36 37  3  0
 34 38  1  0
 38 39  2  0
 38 40  1  0
 21 17  1  0
M  END
$$$$

     RDKit          2D

 41 41  0  0  0  0  0  0  0  0999 V2000
    1.2760    5.1962    0.0000 N   0  0  0  0  0  0  0  0  0  0  0  0
    0.5260    6.4952    0.0000 C   0  0  0  0  0  0  0  0  0  0  0  0
    2.7760    5.1962    0.0000 C   0  0  0  0  0  0  0  0  0  0  0  0
    3.5260    6.4952    0.0000 C   0  0  0  0  0  0  0  0  0  0  0  0
    2.7760    7.7942    0.0000 C   0  0  0  0  0  0  0  0  0  0  0  0
    3.5260    9.0933    0.0000 C   0  0  0  0  0  0  0  0  0  0  0  0
    1.2760    7.7942    0.0000 C   0  0  0  0  0  0  0  0  0  0  0  0
    3.5260    3.8971    0.0000 C   0  0  0  0  0  0  0  0  0  0  0  0
    5.0260    3.8971    0.0000 O   0  0  0  0  0  0  0  0  0  0  0  0
    2.7760    2.5981    0.0000 N   0  0  0  0  0  0  0  0  0  0  0  0
    3.5260    1.2990    0.0000 C   0  0  0  0  0  0  0  0  0  0  0  0
    5.0260    1.2990    0.0000 C   0  0  0  0  0  0  0  0  0  0  0  0
    5.7760    0.0000    0.0000 C   0  0  0  0  0  0  0  0  0  0  0  0
    7.2760    0.0000    0.0000 C   0  0  0  0  0  0  0  0  0  0  0  0
    5.0260   -1.2990    0.0000 C   0  0  0  0  0  0  0  0  0  0  0  0
    2.7760    0.0000    0.0000 C   0  0  0  0  0  0  0  0  0  0  0  0
    3.5260   -1.2990    0.0000 O   0  0  0  0  0  0  0  0  0  0  0  0
    1.2760    0.0000    0.0000 N   0  0  0  0  0  0  0  0  0  0  0  0
    0.3943    1.2135    0.0000 C   0  0  0  0  0  0  0  0  0  0  0  0
   -1.0323    0.7500    0.0000 C   0  0  0  0  0  0  0  0  0  0  0  0
   -1.0323   -0.7500    0.0000 C   0  0  0  0  0  0  0  0  0  0  0  0
    0.3943   -1.2135    0.0000 C   0  0  0  0  0  0  0  0  0  0  0  0
    0.8578   -2.6401    0.0000 C   0  0  0  0  0  0  0  0  0  0  0  0
    2.3250   -2.9520    0.0000 O   0  0  0  0  0  0  0  0  0  0  0  0
   -0.1459   -3.7548    0.0000 N   0  0  0  0  0  0  0  0  0  0  0  0
    0.3177   -5.1814    0.0000 C   0  0  0  0  0  0  0  0  0  0  0  0
   -1.6131   -3.4430    0.0000 C   0  0  0  0  0  0  0  0  0  0  0  0
   -2.0766   -2.0164    0.0000 C   0  0  0  0  0  0  0  0  0  0  0  0
   -3.5438   -1.7045    0.0000 C   0  0  0  0  0  0  0  0  0  0  0  0
   -4.0074   -0.2779    0.0000 C   0  0  0  0  0  0  0  0  0  0  0  0
   -4.5475   -2.8192    0.0000 C   0  0  0  0  0  0  0  0  0  0  0  0
   -2.6168   -4.5577    0.0000 C   0  0  0  0  0  0  0  0  0  0  0  0
   -2.1533   -5.9843    0.0000 O   0  0  0  0  0  0  0  0  0  0  0  0
   -4.0840   -4.2458    0.0000 N   0  0  0  0  0  0  0  0  0  0  0  0
   -5.0877   -5.3605    0.0000 C   0  0  0  0  0  0  0  0  0  0  0  0
   -6.5549   -5.0487    0.0000 C   0  0  0  0  0  0  0  0  0  0  0  0
   -7.5586   -6.1634    0.0000 C   0  0  0  0  0  0  0  0  0  0  0  0
   -8.5623   -7.2781    0.0000 C   0  0  0  0  0  0  0  0  0  0  0  0
   -4.6242   -6.7871    0.0000 C   0  0  0  0  0  0  0  0  0  0  0  0
   -3.1570   -7.0990    0.0000 O   0  0  0  0  0  0  0  0  0  0  0  0
   -5.6279   -7.9018    0.0000 O   0  0  0  0  0  0  0  0  0  0  0  0
  1  2  1  0
  1  3  1  0
  3  4  1  1
  4  5  1  0
  5  6  1  0
  5  7  1  0
  3  8  1  0
  8  9  2  0
  8 10  1  0
 10 11  1  0
 11 12  1  1
 12 13  1  0
 13 14  1  0
 13 15  1  0
 11 16  1  0
 16 17  2  0
 16 18  1  0
 18 19  1  0
 19 20  1  0
 20 21  1  0
 21 22  1  0
 22 23  1  6
 23 24  2  0
 23 25  1  0
 25 26  1  0
 25 27  1  0
 27 28  1  1
 28 29  1  0
 29 30  1  0
 29 31  1  0
 27 32  1  0
 32 33  2  0
 32 34  1  0
 34 35  1  0
 35 36  1  6
 36 37  1  0
 37 38  3  0
 35 39  1  0
 39 40  2  0
 39 41  1  0
 22 18  1  0
M  END
$$$$

     RDKit          2D

 41 41  0  0  0  0  0  0  0  0999 V2000
    1.2760    5.1962    0.0000 N   0  0  0  0  0  0  0  0  0  0  0  0
    0.5260    6.4952    0.0000 C   0  0  0  0  0  0  0  0  0  0  0  0
    2.7760    5.1962    0.0000 C   0  0  0  0  0  0  0  0  0  0  0  0
    3.5260    6.4952    0.0000 C   0  0  0  0  0  0  0  0  0  0  0  0
    2.7760    7.7942    0.0000 C   0  0  0  0  0  0  0  0  0  0  0  0
    3.5260    9.0933    0.0000 C   0  0  0  0  0  0  0  0  0  0  0  0
    1.2760    7.7942    0.0000 C   0  0  0  0  0  0  0  0  0  0  0  0
    3.5260    3.8971    0.0000 C   0  0  0  0  0  0  0  0  0  0  0  0
    5.0260    3.8971    0.0000 O   0  0  0  0  0  0  0  0  0  0  0  0
    2.7760    2.5981    0.0000 N   0  0  0  0  0  0  0  0  0  0  0  0
    3.5260    1.2990    0.0000 C   0  0  0  0  0  0  0  0  0  0  0  0
    5.0260    1.2990    0.0000 C   0  0  0  0  0  0  0  0  0  0  0  0
    5.7760    0.0000    0.0000 C   0  0  0  0  0  0  0  0  0  0  0  0
    7.2760    0.0000    0.0000 C   0  0  0  0  0  0  0  0  0  0  0  0
    5.0260   -1.2990    0.0000 C   0  0  0  0  0  0  0  0  0  0  0  0
    2.7760    0.0000    0.0000 C   0  0  0  0  0  0  0  0  0  0  0  0
    3.5260   -1.2990    0.0000 O   0  0  0  0  0  0  0  0  0  0  0  0
    1.2760    0.0000    0.0000 N   0  0  0  0  0  0  0  0  0  0  0  0
    0.3943    1.2135    0.0000 C   0  0  0  0  0  0  0  0  0  0  0  0
   -1.0323    0.7500    0.0000 C   0  0  0  0  0  0  0  0  0  0  0  0
   -1.0323   -0.7500    0.0000 C   0  0  0  0  0  0  0  0  0  0  0  0
    0.3943   -1.2135    0.0000 C   0  0  0  0  0  0  0  0  0  0  0  0
    0.8578   -2.6401    0.0000 C   0  0  0  0  0  0  0  0  0  0  0  0
    2.3250   -2.9520    0.0000 O   0  0  0  0  0  0  0  0  0  0  0  0
   -0.1459   -3.7548    0.0000 N   0  0  0  0  0  0  0  0  0  0  0  0
    0.3177   -5.1814    0.0000 C   0  0  0  0  0  0  0  0  0  0  0  0
   -1.6131   -3.4430    0.0000 C   0  0  0  0  0  0  0  0  0  0  0  0
   -2.0766   -2.0164    0.0000 C   0  0  0  0  0  0  0  0  0  0  0  0
   -3.5438   -1.7045    0.0000 C   0  0  0  0  0  0  0  0  0  0  0  0
   -4.0074   -0.2779    0.0000 C   0  0  0  0  0  0  0  0  0  0  0  0
   -4.5475   -2.8192    0.0000 C   0  0  0  0  0  0  0  0  0  0  0  0
   -2.6168   -4.5577    0.0000 C   0  0  0  0  0  0  0  0  0  0  0  0
   -2.1533   -5.9843    0.0000 O   0  0  0  0  0  0  0  0  0  0  0  0
   -4.0840   -4.2458    0.0000 N   0  0  0  0  0  0  0  0  0  0  0  0
   -5.0877   -5.3605    0.0000 C   0  0  0  0  0  0  0  0  0  0  0  0
   -6.5549   -5.0487    0.0000 C   0  0  0  0  0  0  0  0  0  0  0  0
   -7.5586   -6.1634    0.0000 C   0  0  0  0  0  0  0  0  0  0  0  0
   -8.5623   -7.2781    0.0000 C   0  0  0  0  0  0  0  0  0  0  0  0
   -4.6242   -6.7871    0.0000 C   0  0  0  0  0  0  0  0  0  0  0  0
   -3.1570   -7.0990    0.0000 O   0  0  0  0  0  0  0  0  0  0  0  0
   -5.6279   -7.9018    0.0000 O   0  0  0  0  0  0  0  0  0  0  0  0
  1  2  1  0
  1  3  1  0
  3  4  1  6
  4  5  1  0
  5  6  1  0
  5  7  1  0
  3  8  1  0
  8  9  2  0
  8 10  1  0
 10 11  1  0
 11 12  1  1
 12 13  1  0
 13 14  1  0
 13 15  1  0
 11 16  1  0
 16 17  2  0
 16 18  1  0
 18 19  1  0
 19 20  1  0
 20 21  1  0
 21 22  1  0
 22 23  1  6
 23 24  2  0
 23 25  1  0
 25 26  1  0
 25 27  1  0
 27 28  1  1
 28 29  1  0
 29 30  1  0
 29 31  1  0
 27 32  1  0
 32 33  2  0
 32 34  1  0
 34 35  1  0
 35 36  1  6
 36 37  1  0
 37 38  3  0
 35 39  1  0
 39 40  2  0
 39 41  1  0
 22 18  1  0
M  END
$$$$

     RDKit          2D

 40 40  0  0  0  0  0  0  0  0999 V2000
    1.2760    5.1962    0.0000 N   0  0  0  0  0  0  0  0  0  0  0  0
    2.7760    5.1962    0.0000 C   0  0  0  0  0  0  0  0  0  0  0  0
    3.5260    6.4952    0.0000 C   0  0  0  0  0  0  0  0  0  0  0  0
    2.7760    7.7942    0.0000 C   0  0  0  0  0  0  0  0  0  0  0  0
    3.5260    9.0933    0.0000 C   0  0  0  0  0  0  0  0  0  0  0  0
    1.2760    7.7942    0.0000 C   0  0  0  0  0  0  0  0  0  0  0  0
    3.5260    3.8971    0.0000 C   0  0  0  0  0  0  0  0  0  0  0  0
    5.0260    3.8971    0.0000 O   0  0  0  0  0  0  0  0  0  0  0  0
    2.7760    2.5981    0.0000 N   0  0  0  0  0  0  0  0  0  0  0  0
    3.5260    1.2990    0.0000 C   0  0  0  0  0  0  0  0  0  0  0  0
    5.0260    1.2990    0.0000 C   0  0  0  0  0  0  0  0  0  0  0  0
    5.7760    0.0000    0.0000 C   0  0  0  0  0  0  0  0  0  0  0  0
    7.2760    0.0000    0.0000 C   0  0  0  0  0  0  0  0  0  0  0  0
    5.0260   -1.2990    0.0000 C   0  0  0  0  0  0  0  0  0  0  0  0
    2.7760    0.0000    0.0000 C   0  0  0  0  0  0  0  0  0  0  0  0
    3.5260   -1.2990    0.0000 O   0  0  0  0  0  0  0  0  0  0  0  0
    1.2760    0.0000    0.0000 N   0  0  0  0  0  0  0  0  0  0  0  0
    0.3943    1.2135    0.0000 C   0  0  0  0  0  0  0  0  0  0  0  0
   -1.0323    0.7500    0.0000 C   0  0  0  0  0  0  0  0  0  0  0  0
   -1.0323   -0.7500    0.0000 C   0  0  0  0  0  0  0  0  0  0  0  0
    0.3943   -1.2135    0.0000 C   0  0  0  0  0  0  0  0  0  0  0  0
    0.8578   -2.6401    0.0000 C   0  0  0  0  0  0  0  0  0  0  0  0
    2.3250   -2.9520    0.0000 O   0  0  0  0  0  0  0  0  0  0  0  0
   -0.1459   -3.7548    0.0000 N   0  0  0  0  0  0  0  0  0  0  0  0
    0.3177   -5.1814    0.0000 C   0  0  0  0  0  0  0  0  0  0  0  0
   -1.6131   -3.4430    0.0000 C   0  0  0  0  0  0  0  0  0  0  0  0
   -2.0766   -2.0164    0.0000 C   0  0  0  0  0  0  0  0  0  0  0  0
   -3.5438   -1.7045    0.0000 C   0  0  0  0  0  0  0  0  0  0  0  0
   -4.0074   -0.2779    0.0000 C   0  0  0  0  0  0  0  0  0  0  0  0
   -4.5475   -2.8192    0.0000 C   0  0  0  0  0  0  0  0  0  0  0  0
   -2.6168   -4.5577    0.0000 C   0  0  0  0  0  0  0  0  0  0  0  0
   -2.1533   -5.9843    0.0000 O   0  0  0  0  0  0  0  0  0  0  0  0
   -4.0840   -4.2458    0.0000 N   0  0  0  0  0  0  0  0  0  0  0  0
   -5.0877   -5.3605    0.0000 C   0  0  0  0  0  0  0  0  0  0  0  0
   -6.5549   -5.0487    0.0000 C   0  0  0  0  0  0  0  0  0  0  0  0
   -7.5586   -6.1634    0.0000 C   0  0  0  0  0  0  0  0  0  0  0  0
   -8.5623   -7.2781    0.0000 C   0  0  0  0  0  0  0  0  0  0  0  0
   -4.6242   -6.7871    0.0000 C   0  0  0  0  0  0  0  0  0  0  0  0
   -3.1570   -7.0990    0.0000 O   0  0  0  0  0  0  0  0  0  0  0  0
   -5.6279   -7.9018    0.0000 O   0  0  0  0  0  0  0  0  0  0  0  0
  2  1  1  1
  2  3  1  0
  3  4  1  0
  4  5  1  0
  4  6  1  0
  2  7  1  0
  7  8  2  0
  7  9  1  0
  9 10  1  0
 10 11  1  6
 11 12  1  0
 12 13  1  0
 12 14  1  0
 10 15  1  0
 15 16  2  0
 15 17  1  0
 17 18  1  0
 18 19  1  0
 19 20  1  0
 20 21  1  0
 21 22  1  6
 22 23  2  0
 22 24  1  0
 24 25  1  0
 24 26  1  0
 26 27  1  1
 27 28  1  0
 28 29  1  0
 28 30  1  0
 26 31  1  0
 31 32  2  0
 31 33  1  0
 33 34  1  0
 34 35  1  6
 35 36  1  0
 36 37  3  0
 34 38  1  0
 38 39  2  0
 38 40  1  0
 21 17  1  0
M  END
$$$$

     RDKit          2D

 40 40  0  0  0  0  0  0  0  0999 V2000
    1.2760    5.1962    0.0000 N   0  0  0  0  0  0  0  0  0  0  0  0
    2.7760    5.1962    0.0000 C   0  0  0  0  0  0  0  0  0  0  0  0
    3.5260    6.4952    0.0000 C   0  0  0  0  0  0  0  0  0  0  0  0
    2.7760    7.7942    0.0000 C   0  0  0  0  0  0  0  0  0  0  0  0
    3.5260    9.0933    0.0000 C   0  0  0  0  0  0  0  0  0  0  0  0
    1.2760    7.7942    0.0000 C   0  0  0  0  0  0  0  0  0  0  0  0
    3.5260    3.8971    0.0000 C   0  0  0  0  0  0  0  0  0  0  0  0
    5.0260    3.8971    0.0000 O   0  0  0  0  0  0  0  0  0  0  0  0
    2.7760    2.5981    0.0000 N   0  0  0  0  0  0  0  0  0  0  0  0
    3.5260    1.2990    0.0000 C   0  0  0  0  0  0  0  0  0  0  0  0
    5.0260    1.2990    0.0000 C   0  0  0  0  0  0  0  0  0  0  0  0
    5.7760    0.0000    0.0000 C   0  0  0  0  0  0  0  0  0  0  0  0
    7.2760    0.0000    0.0000 C   0  0  0  0  0  0  0  0  0  0  0  0
    5.0260   -1.2990    0.0000 C   0  0  0  0  0  0  0  0  0  0  0  0
    2.7760    0.0000    0.0000 C   0  0  0  0  0  0  0  0  0  0  0  0
    3.5260   -1.2990    0.0000 O   0  0  0  0  0  0  0  0  0  0  0  0
    1.2760    0.0000    0.0000 N   0  0  0  0  0  0  0  0  0  0  0  0
    0.3943    1.2135    0.0000 C   0  0  0  0  0  0  0  0  0  0  0  0
   -1.0323    0.7500    0.0000 C   0  0  0  0  0  0  0  0  0  0  0  0
   -1.0323   -0.7500    0.0000 C   0  0  0  0  0  0  0  0  0  0  0  0
    0.3943   -1.2135    0.0000 C   0  0  0  0  0  0  0  0  0  0  0  0
    0.8578   -2.6401    0.0000 C   0  0  0  0  0  0  0  0  0  0  0  0
    2.3250   -2.9520    0.0000 O   0  0  0  0  0  0  0  0  0  0  0  0
   -0.1459   -3.7548    0.0000 N   0  0  0  0  0  0  0  0  0  0  0  0
    0.3177   -5.1814    0.0000 C   0  0  0  0  0  0  0  0  0  0  0  0
   -1.6131   -3.4430    0.0000 C   0  0  0  0  0  0  0  0  0  0  0  0
   -2.0766   -2.0164    0.0000 C   0  0  0  0  0  0  0  0  0  0  0  0
   -3.5438   -1.7045    0.0000 C   0  0  0  0  0  0  0  0  0  0  0  0
   -4.0074   -0.2779    0.0000 C   0  0  0  0  0  0  0  0  0  0  0  0
   -4.5475   -2.8192    0.0000 C   0  0  0  0  0  0  0  0  0  0  0  0
   -2.6168   -4.5577    0.0000 C   0  0  0  0  0  0  0  0  0  0  0  0
   -2.1533   -5.9843    0.0000 O   0  0  0  0  0  0  0  0  0  0  0  0
   -4.0840   -4.2458    0.0000 N   0  0  0  0  0  0  0  0  0  0  0  0
   -5.0877   -5.3605    0.0000 C   0  0  0  0  0  0  0  0  0  0  0  0
   -6.5549   -5.0487    0.0000 C   0  0  0  0  0  0  0  0  0  0  0  0
   -7.5586   -6.1634    0.0000 C   0  0  0  0  0  0  0  0  0  0  0  0
   -8.5623   -7.2781    0.0000 C   0  0  0  0  0  0  0  0  0  0  0  0
   -4.6242   -6.7871    0.0000 C   0  0  0  0  0  0  0  0  0  0  0  0
   -3.1570   -7.0990    0.0000 O   0  0  0  0  0  0  0  0  0  0  0  0
   -5.6279   -7.9018    0.0000 O   0  0  0  0  0  0  0  0  0  0  0  0
  2  1  1  6
  2  3  1  0
  3  4  1  0
  4  5  1  0
  4  6  1  0
  2  7  1  0
  7  8  2  0
  7  9  1  0
  9 10  1  0
 10 11  1  6
 11 12  1  0
 12 13  1  0
 12 14  1  0
 10 15  1  0
 15 16  2  0
 15 17  1  0
 17 18  1  0
 18 19  1  0
 19 20  1  0
 20 21  1  0
 21 22  1  6
 22 23  2  0
 22 24  1  0
 24 25  1  0
 24 26  1  0
 26 27  1  1
 27 28  1  0
 28 29  1  0
 28 30  1  0
 26 31  1  0
 31 32  2  0
 31 33  1  0
 33 34  1  0
 34 35  1  6
 35 36  1  0
 36 37  3  0
 34 38  1  0
 38 39  2  0
 38 40  1  0
 21 17  1  0
M  END
$$$$

     RDKit          2D

 41 41  0  0  0  0  0  0  0  0999 V2000
    1.2760    5.1962    0.0000 N   0  0  0  0  0  0  0  0  0  0  0  0
    0.5260    6.4952    0.0000 C   0  0  0  0  0  0  0  0  0  0  0  0
    2.7760    5.1962    0.0000 C   0  0  0  0  0  0  0  0  0  0  0  0
    3.5260    6.4952    0.0000 C   0  0  0  0  0  0  0  0  0  0  0  0
    2.7760    7.7942    0.0000 C   0  0  0  0  0  0  0  0  0  0  0  0
    3.5260    9.0933    0.0000 C   0  0  0  0  0  0  0  0  0  0  0  0
    1.2760    7.7942    0.0000 C   0  0  0  0  0  0  0  0  0  0  0  0
    3.5260    3.8971    0.0000 C   0  0  0  0  0  0  0  0  0  0  0  0
    5.0260    3.8971    0.0000 O   0  0  0  0  0  0  0  0  0  0  0  0
    2.7760    2.5981    0.0000 N   0  0  0  0  0  0  0  0  0  0  0  0
    3.5260    1.2990    0.0000 C   0  0  0  0  0  0  0  0  0  0  0  0
    5.0260    1.2990    0.0000 C   0  0  0  0  0  0  0  0  0  0  0  0
    5.7760    0.0000    0.0000 C   0  0  0  0  0  0  0  0  0  0  0  0
    7.2760    0.0000    0.0000 C   0  0  0  0  0  0  0  0  0  0  0  0
    5.0260   -1.2990    0.0000 C   0  0  0  0  0  0  0  0  0  0  0  0
    2.7760    0.0000    0.0000 C   0  0  0  0  0  0  0  0  0  0  0  0
    3.5260   -1.2990    0.0000 O   0  0  0  0  0  0  0  0  0  0  0  0
    1.2760    0.0000    0.0000 N   0  0  0  0  0  0  0  0  0  0  0  0
    0.3943    1.2135    0.0000 C   0  0  0  0  0  0  0  0  0  0  0  0
   -1.0323    0.7500    0.0000 C   0  0  0  0  0  0  0  0  0  0  0  0
   -1.0323   -0.7500    0.0000 C   0  0  0  0  0  0  0  0  0  0  0  0
    0.3943   -1.2135    0.0000 C   0  0  0  0  0  0  0  0  0  0  0  0
    0.8578   -2.6401    0.0000 C   0  0  0  0  0  0  0  0  0  0  0  0
    2.3250   -2.9520    0.0000 O   0  0  0  0  0  0  0  0  0  0  0  0
   -0.1459   -3.7548    0.0000 N   0  0  0  0  0  0  0  0  0  0  0  0
    0.3177   -5.1814    0.0000 C   0  0  0  0  0  0  0  0  0  0  0  0
   -1.6131   -3.4430    0.0000 C   0  0  0  0  0  0  0  0  0  0  0  0
   -2.0766   -2.0164    0.0000 C   0  0  0  0  0  0  0  0  0  0  0  0
   -3.5438   -1.7045    0.0000 C   0  0  0  0  0  0  0  0  0  0  0  0
   -4.0074   -0.2779    0.0000 C   0  0  0  0  0  0  0  0  0  0  0  0
   -4.5475   -2.8192    0.0000 C   0  0  0  0  0  0  0  0  0  0  0  0
   -2.6168   -4.5577    0.0000 C   0  0  0  0  0  0  0  0  0  0  0  0
   -2.1533   -5.9843    0.0000 O   0  0  0  0  0  0  0  0  0  0  0  0
   -4.0840   -4.2458    0.0000 N   0  0  0  0  0  0  0  0  0  0  0  0
   -5.0877   -5.3605    0.0000 C   0  0  0  0  0  0  0  0  0  0  0  0
   -6.5549   -5.0487    0.0000 C   0  0  0  0  0  0  0  0  0  0  0  0
   -7.5586   -6.1634    0.0000 C   0  0  0  0  0  0  0  0  0  0  0  0
   -8.5623   -7.2781    0.0000 C   0  0  0  0  0  0  0  0  0  0  0  0
   -4.6242   -6.7871    0.0000 C   0  0  0  0  0  0  0  0  0  0  0  0
   -3.1570   -7.0990    0.0000 O   0  0  0  0  0  0  0  0  0  0  0  0
   -5.6279   -7.9018    0.0000 O   0  0  0  0  0  0  0  0  0  0  0  0
  1  2  1  0
  1  3  1  0
  3  4  1  1
  4  5  1  0
  5  6  1  0
  5  7  1  0
  3  8  1  0
  8  9  2  0
  8 10  1  0
 10 11  1  0
 11 12  1  6
 12 13  1  0
 13 14  1  0
 13 15  1  0
 11 16  1  0
 16 17  2  0
 16 18  1  0
 18 19  1  0
 19 20  1  0
 20 21  1  0
 21 22  1  0
 22 23  1  6
 23 24  2  0
 23 25  1  0
 25 26  1  0
 25 27  1  0
 27 28  1  1
 28 29  1  0
 29 30  1  0
 29 31  1  0
 27 32  1  0
 32 33  2  0
 32 34  1  0
 34 35  1  0
 35 36  1  6
 36 37  1  0
 37 38  3  0
 35 39  1  0
 39 40  2  0
 39 41  1  0
 22 18  1  0
M  END
$$$$

     RDKit          2D

 41 41  0  0  0  0  0  0  0  0999 V2000
    1.2760    5.1962    0.0000 N   0  0  0  0  0  0  0  0  0  0  0  0
    0.5260    6.4952    0.0000 C   0  0  0  0  0  0  0  0  0  0  0  0
    2.7760    5.1962    0.0000 C   0  0  0  0  0  0  0  0  0  0  0  0
    3.5260    6.4952    0.0000 C   0  0  0  0  0  0  0  0  0  0  0  0
    2.7760    7.7942    0.0000 C   0  0  0  0  0  0  0  0  0  0  0  0
    3.5260    9.0933    0.0000 C   0  0  0  0  0  0  0  0  0  0  0  0
    1.2760    7.7942    0.0000 C   0  0  0  0  0  0  0  0  0  0  0  0
    3.5260    3.8971    0.0000 C   0  0  0  0  0  0  0  0  0  0  0  0
    5.0260    3.8971    0.0000 O   0  0  0  0  0  0  0  0  0  0  0  0
    2.7760    2.5981    0.0000 N   0  0  0  0  0  0  0  0  0  0  0  0
    3.5260    1.2990    0.0000 C   0  0  0  0  0  0  0  0  0  0  0  0
    5.0260    1.2990    0.0000 C   0  0  0  0  0  0  0  0  0  0  0  0
    5.7760    0.0000    0.0000 C   0  0  0  0  0  0  0  0  0  0  0  0
    7.2760    0.0000    0.0000 C   0  0  0  0  0  0  0  0  0  0  0  0
    5.0260   -1.2990    0.0000 C   0  0  0  0  0  0  0  0  0  0  0  0
    2.7760    0.0000    0.0000 C   0  0  0  0  0  0  0  0  0  0  0  0
    3.5260   -1.2990    0.0000 O   0  0  0  0  0  0  0  0  0  0  0  0
    1.2760    0.0000    0.0000 N   0  0  0  0  0  0  0  0  0  0  0  0
    0.3943    1.2135    0.0000 C   0  0  0  0  0  0  0  0  0  0  0  0
   -1.0323    0.7500    0.0000 C   0  0  0  0  0  0  0  0  0  0  0  0
   -1.0323   -0.7500    0.0000 C   0  0  0  0  0  0  0  0  0  0  0  0
    0.3943   -1.2135    0.0000 C   0  0  0  0  0  0  0  0  0  0  0  0
    0.8578   -2.6401    0.0000 C   0  0  0  0  0  0  0  0  0  0  0  0
    2.3250   -2.9520    0.0000 O   0  0  0  0  0  0  0  0  0  0  0  0
   -0.1459   -3.7548    0.0000 N   0  0  0  0  0  0  0  0  0  0  0  0
    0.3177   -5.1814    0.0000 C   0  0  0  0  0  0  0  0  0  0  0  0
   -1.6131   -3.4430    0.0000 C   0  0  0  0  0  0  0  0  0  0  0  0
   -2.0766   -2.0164    0.0000 C   0  0  0  0  0  0  0  0  0  0  0  0
   -3.5438   -1.7045    0.0000 C   0  0  0  0  0  0  0  0  0  0  0  0
   -4.0074   -0.2779    0.0000 C   0  0  0  0  0  0  0  0  0  0  0  0
   -4.5475   -2.8192    0.0000 C   0  0  0  0  0  0  0  0  0  0  0  0
   -2.6168   -4.5577    0.0000 C   0  0  0  0  0  0  0  0  0  0  0  0
   -2.1533   -5.9843    0.0000 O   0  0  0  0  0  0  0  0  0  0  0  0
   -4.0840   -4.2458    0.0000 N   0  0  0  0  0  0  0  0  0  0  0  0
   -5.0877   -5.3605    0.0000 C   0  0  0  0  0  0  0  0  0  0  0  0
   -6.5549   -5.0487    0.0000 C   0  0  0  0  0  0  0  0  0  0  0  0
   -7.5586   -6.1634    0.0000 C   0  0  0  0  0  0  0  0  0  0  0  0
   -8.5623   -7.2781    0.0000 C   0  0  0  0  0  0  0  0  0  0  0  0
   -4.6242   -6.7871    0.0000 C   0  0  0  0  0  0  0  0  0  0  0  0
   -3.1570   -7.0990    0.0000 O   0  0  0  0  0  0  0  0  0  0  0  0
   -5.6279   -7.9018    0.0000 O   0  0  0  0  0  0  0  0  0  0  0  0
  1  2  1  0
  1  3  1  0
  3  4  1  6
  4  5  1  0
  5  6  1  0
  5  7  1  0
  3  8  1  0
  8  9  2  0
  8 10  1  0
 10 11  1  0
 11 12  1  6
 12 13  1  0
 13 14  1  0
 13 15  1  0
 11 16  1  0
 16 17  2  0
 16 18  1  0
 18 19  1  0
 19 20  1  0
 20 21  1  0
 21 22  1  0
 22 23  1  6
 23 24  2  0
 23 25  1  0
 25 26  1  0
 25 27  1  0
 27 28  1  1
 28 29  1  0
 29 30  1  0
 29 31  1  0
 27 32  1  0
 32 33  2  0
 32 34  1  0
 34 35  1  0
 35 36  1  6
 36 37  1  0
 37 38  3  0
 35 39  1  0
 39 40  2  0
 39 41  1  0
 22 18  1  0
M  END
$$$$

     RDKit          2D

 41 41  0  0  0  0  0  0  0  0999 V2000
    8.0260    1.2990    0.0000 N   0  0  0  0  0  0  0  0  0  0  0  0
    7.2760    0.0000    0.0000 C   0  0  0  0  0  0  0  0  0  0  0  0
    8.0260   -1.2990    0.0000 C   0  0  0  0  0  0  0  0  0  0  0  0
    9.5260   -1.2990    0.0000 C   0  0  0  0  0  0  0  0  0  0  0  0
   10.2760   -2.5981    0.0000 C   0  0  0  0  0  0  0  0  0  0  0  0
   10.2760    0.0000    0.0000 C   0  0  0  0  0  0  0  0  0  0  0  0
    5.7760    0.0000    0.0000 C   0  0  0  0  0  0  0  0  0  0  0  0
    5.0260   -1.2990    0.0000 O   0  0  0  0  0  0  0  0  0  0  0  0
    5.0260    1.2990    0.0000 N   0  0  0  0  0  0  0  0  0  0  0  0
    5.7760    2.5981    0.0000 C   0  0  0  0  0  0  0  0  0  0  0  0
    3.5260    1.2990    0.0000 C   0  0  0  0  0  0  0  0  0  0  0  0
    2.7760    2.5981    0.0000 C   0  0  0  0  0  0  0  0  0  0  0  0
    3.5260    3.8971    0.0000 C   0  0  0  0  0  0  0  0  0  0  0  0
    2.7760    5.1962    0.0000 C   0  0  0  0  0  0  0  0  0  0  0  0
    5.0260    3.8971    0.0000 C   0  0  0  0  0  0  0  0  0  0  0  0
    2.7760    0.0000    0.0000 C   0  0  0  0  0  0  0  0  0  0  0  0
    3.5260   -1.2990    0.0000 O   0  0  0  0  0  0  0  0  0  0  0  0
    1.2760    0.0000    0.0000 N   0  0  0  0  0  0  0  0  0  0  0  0
    0.3943    1.2135    0.0000 C   0  0  0  0  0  0  0  0  0  0  0  0
   -1.0323    0.7500    0.0000 C   0  0  0  0  0  0  0  0  0  0  0  0
   -1.0323   -0.7500    0.0000 C   0  0  0  0  0  0  0  0  0  0  0  0
    0.3943   -1.2135    0.0000 C   0  0  0  0  0  0  0  0  0  0  0  0
    0.8578   -2.6401    0.0000 C   0  0  0  0  0  0  0  0  0  0  0  0
    2.3250   -2.9520    0.0000 O   0  0  0  0  0  0  0  0  0  0  0  0
   -0.1459   -3.7548    0.0000 N   0  0  0  0  0  0  0  0  0  0  0  0
    0.3177   -5.1814    0.0000 C   0  0  0  0  0  0  0  0  0  0  0  0
   -1.6131   -3.4430    0.0000 C   0  0  0  0  0  0  0  0  0  0  0  0
   -2.0766   -2.0164    0.0000 C   0  0  0  0  0  0  0  0  0  0  0  0
   -3.5438   -1.7045    0.0000 C   0  0  0  0  0  0  0  0  0  0  0  0
   -4.0074   -0.2779    0.0000 C   0  0  0  0  0  0  0  0  0  0  0  0
   -4.5475   -2.8192    0.0000 C   0  0  0  0  0  0  0  0  0  0  0  0
   -2.6168   -4.5577    0.0000 C   0  0  0  0  0  0  0  0  0  0  0  0
   -2.1533   -5.9843    0.0000 O   0  0  0  0  0  0  0  0  0  0  0  0
   -4.0840   -4.2458    0.0000 N   0  0  0  0  0  0  0  0  0  0  0  0
   -5.0877   -5.3605    0.0000 C   0  0  0  0  0  0  0  0  0  0  0  0
   -6.5549   -5.0487    0.0000 C   0  0  0  0  0  0  0  0  0  0  0  0
   -7.5586   -6.1634    0.0000 C   0  0  0  0  0  0  0  0  0  0  0  0
   -8.5623   -7.2781    0.0000 C   0  0  0  0  0  0  0  0  0  0  0  0
   -4.6242   -6.7871    0.0000 C   0  0  0  0  0  0  0  0  0  0  0  0
   -3.1570   -7.0990    0.0000 O   0  0  0  0  0  0  0  0  0  0  0  0
   -5.6279   -7.9018    0.0000 O   0  0  0  0  0  0  0  0  0  0  0  0
  2  1  1  1
  2  3  1  0
  3  4  1  0
  4  5  1  0
  4  6  1  0
  2  7  1  0
  7  8  2  0
  7  9  1  0
  9 10  1  0
  9 11  1  0
 11 12  1  6
 12 13  1  0
 13 14  1  0
 13 15  1  0
 11 16  1  0
 16 17  2  0
 16 18  1  0
 18 19  1  0
 19 20  1  0
 20 21  1  0
 21 22  1  0
 22 23  1  6
 23 24  2  0
 23 25  1  0
 25 26  1  0
 25 27  1  0
 27 28  1  1
 28 29  1  0
 29 30  1  0
 29 31  1  0
 27 32  1  0
 32 33  2  0
 32 34  1  0
 34 35  1  0
 35 36  1  6
 36 37  1  0
 37 38  3  0
 35 39  1  0
 39 40  2  0
 39 41  1  0
 22 18  1  0
M  END
$$$$

     RDKit          2D

 41 41  0  0  0  0  0  0  0  0999 V2000
    8.0260    1.2990    0.0000 N   0  0  0  0  0  0  0  0  0  0  0  0
    7.2760    0.0000    0.0000 C   0  0  0  0  0  0  0  0  0  0  0  0
    8.0260   -1.2990    0.0000 C   0  0  0  0  0  0  0  0  0  0  0  0
    9.5260   -1.2990    0.0000 C   0  0  0  0  0  0  0  0  0  0  0  0
   10.2760   -2.5981    0.0000 C   0  0  0  0  0  0  0  0  0  0  0  0
   10.2760    0.0000    0.0000 C   0  0  0  0  0  0  0  0  0  0  0  0
    5.7760    0.0000    0.0000 C   0  0  0  0  0  0  0  0  0  0  0  0
    5.0260   -1.2990    0.0000 O   0  0  0  0  0  0  0  0  0  0  0  0
    5.0260    1.2990    0.0000 N   0  0  0  0  0  0  0  0  0  0  0  0
    5.7760    2.5981    0.0000 C   0  0  0  0  0  0  0  0  0  0  0  0
    3.5260    1.2990    0.0000 C   0  0  0  0  0  0  0  0  0  0  0  0
    2.7760    2.5981    0.0000 C   0  0  0  0  0  0  0  0  0  0  0  0
    3.5260    3.8971    0.0000 C   0  0  0  0  0  0  0  0  0  0  0  0
    2.7760    5.1962    0.0000 C   0  0  0  0  0  0  0  0  0  0  0  0
    5.0260    3.8971    0.0000 C   0  0  0  0  0  0  0  0  0  0  0  0
    2.7760    0.0000    0.0000 C   0  0  0  0  0  0  0  0  0  0  0  0
    3.5260   -1.2990    0.0000 O   0  0  0  0  0  0  0  0  0  0  0  0
    1.2760    0.0000    0.0000 N   0  0  0  0  0  0  0  0  0  0  0  0
    0.3943    1.2135    0.0000 C   0  0  0  0  0  0  0  0  0  0  0  0
   -1.0323    0.7500    0.0000 C   0  0  0  0  0  0  0  0  0  0  0  0
   -1.0323   -0.7500    0.0000 C   0  0  0  0  0  0  0  0  0  0  0  0
    0.3943   -1.2135    0.0000 C   0  0  0  0  0  0  0  0  0  0  0  0
    0.8578   -2.6401    0.0000 C   0  0  0  0  0  0  0  0  0  0  0  0
    2.3250   -2.9520    0.0000 O   0  0  0  0  0  0  0  0  0  0  0  0
   -0.1459   -3.7548    0.0000 N   0  0  0  0  0  0  0  0  0  0  0  0
    0.3177   -5.1814    0.0000 C   0  0  0  0  0  0  0  0  0  0  0  0
   -1.6131   -3.4430    0.0000 C   0  0  0  0  0  0  0  0  0  0  0  0
   -2.0766   -2.0164    0.0000 C   0  0  0  0  0  0  0  0  0  0  0  0
   -3.5438   -1.7045    0.0000 C   0  0  0  0  0  0  0  0  0  0  0  0
   -4.0074   -0.2779    0.0000 C   0  0  0  0  0  0  0  0  0  0  0  0
   -4.5475   -2.8192    0.0000 C   0  0  0  0  0  0  0  0  0  0  0  0
   -2.6168   -4.5577    0.0000 C   0  0  0  0  0  0  0  0  0  0  0  0
   -2.1533   -5.9843    0.0000 O   0  0  0  0  0  0  0  0  0  0  0  0
   -4.0840   -4.2458    0.0000 N   0  0  0  0  0  0  0  0  0  0  0  0
   -5.0877   -5.3605    0.0000 C   0  0  0  0  0  0  0  0  0  0  0  0
   -6.5549   -5.0487    0.0000 C   0  0  0  0  0  0  0  0  0  0  0  0
   -7.5586   -6.1634    0.0000 C   0  0  0  0  0  0  0  0  0  0  0  0
   -8.5623   -7.2781    0.0000 C   0  0  0  0  0  0  0  0  0  0  0  0
   -4.6242   -6.7871    0.0000 C   0  0  0  0  0  0  0  0  0  0  0  0
   -3.1570   -7.0990    0.0000 O   0  0  0  0  0  0  0  0  0  0  0  0
   -5.6279   -7.9018    0.0000 O   0  0  0  0  0  0  0  0  0  0  0  0
  2  1  1  6
  2  3  1  0
  3  4  1  0
  4  5  1  0
  4  6  1  0
  2  7  1  0
  7  8  2  0
  7  9  1  0
  9 10  1  0
  9 11  1  0
 11 12  1  6
 12 13  1  0
 13 14  1  0
 13 15  1  0
 11 16  1  0
 16 17  2  0
 16 18  1  0
 18 19  1  0
 19 20  1  0
 20 21  1  0
 21 22  1  0
 22 23  1  6
 23 24  2  0
 23 25  1  0
 25 26  1  0
 25 27  1  0
 27 28  1  1
 28 29  1  0
 29 30  1  0
 29 31  1  0
 27 32  1  0
 32 33  2  0
 32 34  1  0
 34 35  1  0
 35 36  1  6
 36 37  1  0
 37 38  3  0
 35 39  1  0
 39 40  2  0
 39 41  1  0
 22 18  1  0
M  END
$$$$

     RDKit          2D

 27 27  0  0  0  0  0  0  0  0999 V2000
    1.5000   -5.1962    0.0000 N   0  0  0  0  0  0  0  0  0  0  0  0
    3.0000   -5.1962    0.0000 C   0  0  0  0  0  0  0  0  0  0  0  0
    3.7500   -6.4952    0.0000 C   0  0  0  0  0  0  0  0  0  0  0  0
    3.0000   -7.7942    0.0000 C   0  0  0  0  0  0  0  0  0  0  0  0
    3.7500   -9.0933    0.0000 C   0  0  0  0  0  0  0  0  0  0  0  0
    1.5000   -7.7942    0.0000 C   0  0  0  0  0  0  0  0  0  0  0  0
    3.7500   -3.8971    0.0000 C   0  0  0  0  0  0  0  0  0  0  0  0
    5.2500   -3.8971    0.0000 O   0  0  0  0  0  0  0  0  0  0  0  0
    3.0000   -2.5981    0.0000 N   0  0  0  0  0  0  0  0  0  0  0  0
    3.7500   -1.2990    0.0000 C   0  0  0  0  0  0  0  0  0  0  0  0
    3.0000    0.0000    0.0000 C   0  0  0  0  0  0  0  0  0  0  0  0
    1.5000    0.0000    0.0000 C   0  0  0  0  0  0  0  0  0  0  0  0
    0.7500   -1.2990    0.0000 C   0  0  0  0  0  0  0  0  0  0  0  0
   -0.7500   -1.2990    0.0000 C   0  0  0  0  0  0  0  0  0  0  0  0
   -1.5000    0.0000    0.0000 C   0  0  0  0  0  0  0  0  0  0  0  0
   -0.7500    1.2990    0.0000 C   0  0  0  0  0  0  0  0  0  0  0  0
    0.7500    1.2990    0.0000 C   0  0  0  0  0  0  0  0  0  0  0  0
    5.2500   -1.2990    0.0000 C   0  0  0  0  0  0  0  0  0  0  0  0
    6.0000    0.0000    0.0000 O   0  0  0  0  0  0  0  0  0  0  0  0
    6.0000   -2.5981    0.0000 N   0  0  0  0  0  0  0  0  0  0  0  0
    7.5000   -2.5981    0.0000 C   0  0  0  0  0  0  0  0  0  0  0  0
    8.2500   -3.8971    0.0000 C   0  0  0  0  0  0  0  0  0  0  0  0
    9.7500   -3.8971    0.0000 C   0  0  0  0  0  0  0  0  0  0  0  0
   11.2500   -3.8971    0.0000 C   0  0  0  0  0  0  0  0  0  0  0  0
    8.2500   -1.2990    0.0000 C   0  0  0  0  0  0  0  0  0  0  0  0
    7.5000    0.0000    0.0000 O   0  0  0  0  0  0  0  0  0  0  0  0
    9.7500   -1.2990    0.0000 O   0  0  0  0  0  0  0  0  0  0  0  0
  2  1  1  6
  2  3  1  0
  3  4  1  0
  4  5  1  0
  4  6  1  0
  2  7  1  0
  7  8  2  0
  7  9  1  0
  9 10  1  0
 10 11  1  1
 11 12  1  0
 12 13  2  0
 13 14  1  0
 14 15  2  0
 15 16  1  0
 16 17  2  0
 10 18  1  0
 18 19  2  0
 18 20  1  0
 20 21  1  0
 21 22  1  6
 22 23  1  0
 23 24  3  0
 21 25  1  0
 25 26  2  0
 25 27  1  0
 17 12  1  0
M  END
$$$$

     RDKit          2D

 27 27  0  0  0  0  0  0  0  0999 V2000
    1.5000   -5.1962    0.0000 N   0  0  0  0  0  0  0  0  0  0  0  0
    3.0000   -5.1962    0.0000 C   0  0  0  0  0  0  0  0  0  0  0  0
    3.7500   -6.4952    0.0000 C   0  0  0  0  0  0  0  0  0  0  0  0
    3.0000   -7.7942    0.0000 C   0  0  0  0  0  0  0  0  0  0  0  0
    3.7500   -9.0933    0.0000 C   0  0  0  0  0  0  0  0  0  0  0  0
    1.5000   -7.7942    0.0000 C   0  0  0  0  0  0  0  0  0  0  0  0
    3.7500   -3.8971    0.0000 C   0  0  0  0  0  0  0  0  0  0  0  0
    5.2500   -3.8971    0.0000 O   0  0  0  0  0  0  0  0  0  0  0  0
    3.0000   -2.5981    0.0000 N   0  0  0  0  0  0  0  0  0  0  0  0
    3.7500   -1.2990    0.0000 C   0  0  0  0  0  0  0  0  0  0  0  0
    3.0000    0.0000    0.0000 C   0  0  0  0  0  0  0  0  0  0  0  0
    1.5000    0.0000    0.0000 C   0  0  0  0  0  0  0  0  0  0  0  0
    0.7500   -1.2990    0.0000 C   0  0  0  0  0  0  0  0  0  0  0  0
   -0.7500   -1.2990    0.0000 C   0  0  0  0  0  0  0  0  0  0  0  0
   -1.5000    0.0000    0.0000 C   0  0  0  0  0  0  0  0  0  0  0  0
   -0.7500    1.2990    0.0000 C   0  0  0  0  0  0  0  0  0  0  0  0
    0.7500    1.2990    0.0000 C   0  0  0  0  0  0  0  0  0  0  0  0
    5.2500   -1.2990    0.0000 C   0  0  0  0  0  0  0  0  0  0  0  0
    6.0000    0.0000    0.0000 O   0  0  0  0  0  0  0  0  0  0  0  0
    6.0000   -2.5981    0.0000 N   0  0  0  0  0  0  0  0  0  0  0  0
    7.5000   -2.5981    0.0000 C   0  0  0  0  0  0  0  0  0  0  0  0
    8.2500   -3.8971    0.0000 C   0  0  0  0  0  0  0  0  0  0  0  0
    9.7500   -3.8971    0.0000 C   0  0  0  0  0  0  0  0  0  0  0  0
   11.2500   -3.8971    0.0000 C   0  0  0  0  0  0  0  0  0  0  0  0
    8.2500   -1.2990    0.0000 C   0  0  0  0  0  0  0  0  0  0  0  0
    7.5000    0.0000    0.0000 O   0  0  0  0  0  0  0  0  0  0  0  0
    9.7500   -1.2990    0.0000 O   0  0  0  0  0  0  0  0  0  0  0  0
  2  1  1  1
  2  3  1  0
  3  4  1  0
  4  5  1  0
  4  6  1  0
  2  7  1  0
  7  8  2  0
  7  9  1  0
  9 10  1  0
 10 11  1  1
 11 12  1  0
 12 13  2  0
 13 14  1  0
 14 15  2  0
 15 16  1  0
 16 17  2  0
 10 18  1  0
 18 19  2  0
 18 20  1  0
 20 21  1  0
 21 22  1  6
 22 23  1  0
 23 24  3  0
 21 25  1  0
 25 26  2  0
 25 27  1  0
 17 12  1  0
M  END
$$$$

     RDKit          2D

 26 26  0  0  0  0  0  0  0  0999 V2000
    1.5000   -5.1962    0.0000 N   0  0  0  0  0  0  0  0  0  0  0  0
    3.0000   -5.1962    0.0000 C   0  0  0  0  0  0  0  0  0  0  0  0
    3.7500   -6.4952    0.0000 C   0  0  0  0  0  0  0  0  0  0  0  0
    3.0000   -7.7942    0.0000 C   0  0  0  0  0  0  0  0  0  0  0  0
    5.2500   -6.4952    0.0000 C   0  0  0  0  0  0  0  0  0  0  0  0
    3.7500   -3.8971    0.0000 C   0  0  0  0  0  0  0  0  0  0  0  0
    5.2500   -3.8971    0.0000 O   0  0  0  0  0  0  0  0  0  0  0  0
    3.0000   -2.5981    0.0000 N   0  0  0  0  0  0  0  0  0  0  0  0
    3.7500   -1.2990    0.0000 C   0  0  0  0  0  0  0  0  0  0  0  0
    3.0000    0.0000    0.0000 C   0  0  0  0  0  0  0  0  0  0  0  0
    1.5000    0.0000    0.0000 C   0  0  0  0  0  0  0  0  0  0  0  0
    0.7500   -1.2990    0.0000 C   0  0  0  0  0  0  0  0  0  0  0  0
   -0.7500   -1.2990    0.0000 C   0  0  0  0  0  0  0  0  0  0  0  0
   -1.5000    0.0000    0.0000 C   0  0  0  0  0  0  0  0  0  0  0  0
   -0.7500    1.2990    0.0000 C   0  0  0  0  0  0  0  0  0  0  0  0
    0.7500    1.2990    0.0000 C   0  0  0  0  0  0  0  0  0  0  0  0
    5.2500   -1.2990    0.0000 C   0  0  0  0  0  0  0  0  0  0  0  0
    6.0000    0.0000    0.0000 O   0  0  0  0  0  0  0  0  0  0  0  0
    6.0000   -2.5981    0.0000 N   0  0  0  0  0  0  0  0  0  0  0  0
    7.5000   -2.5981    0.0000 C   0  0  0  0  0  0  0  0  0  0  0  0
    8.2500   -3.8971    0.0000 C   0  0  0  0  0  0  0  0  0  0  0  0
    9.7500   -3.8971    0.0000 C   0  0  0  0  0  0  0  0  0  0  0  0
   11.2500   -3.8971    0.0000 C   0  0  0  0  0  0  0  0  0  0  0  0
    8.2500   -1.2990    0.0000 C   0  0  0  0  0  0  0  0  0  0  0  0
    7.5000    0.0000    0.0000 O   0  0  0  0  0  0  0  0  0  0  0  0
    9.7500   -1.2990    0.0000 O   0  0  0  0  0  0  0  0  0  0  0  0
  2  1  1  6
  2  3  1  0
  3  4  1  0
  3  5  1  0
  2  6  1  0
  6  7  2  0
  6  8  1  0
  8  9  1  0
  9 10  1  1
 10 11  1  0
 11 12  2  0
 12 13  1  0
 13 14  2  0
 14 15  1  0
 15 16  2  0
  9 17  1  0
 17 18  2  0
 17 19  1  0
 19 20  1  0
 20 21  1  6
 21 22  1  0
 22 23  3  0
 20 24  1  0
 24 25  2  0
 24 26  1  0
 16 11  1  0
M  END
$$$$

     RDKit          2D

 26 26  0  0  0  0  0  0  0  0999 V2000
    1.5000   -5.1962    0.0000 N   0  0  0  0  0  0  0  0  0  0  0  0
    3.0000   -5.1962    0.0000 C   0  0  0  0  0  0  0  0  0  0  0  0
    3.7500   -6.4952    0.0000 C   0  0  0  0  0  0  0  0  0  0  0  0
    3.0000   -7.7942    0.0000 C   0  0  0  0  0  0  0  0  0  0  0  0
    5.2500   -6.4952    0.0000 C   0  0  0  0  0  0  0  0  0  0  0  0
    3.7500   -3.8971    0.0000 C   0  0  0  0  0  0  0  0  0  0  0  0
    5.2500   -3.8971    0.0000 O   0  0  0  0  0  0  0  0  0  0  0  0
    3.0000   -2.5981    0.0000 N   0  0  0  0  0  0  0  0  0  0  0  0
    3.7500   -1.2990    0.0000 C   0  0  0  0  0  0  0  0  0  0  0  0
    3.0000    0.0000    0.0000 C   0  0  0  0  0  0  0  0  0  0  0  0
    1.5000    0.0000    0.0000 C   0  0  0  0  0  0  0  0  0  0  0  0
    0.7500   -1.2990    0.0000 C   0  0  0  0  0  0  0  0  0  0  0  0
   -0.7500   -1.2990    0.0000 C   0  0  0  0  0  0  0  0  0  0  0  0
   -1.5000    0.0000    0.0000 C   0  0  0  0  0  0  0  0  0  0  0  0
   -0.7500    1.2990    0.0000 C   0  0  0  0  0  0  0  0  0  0  0  0
    0.7500    1.2990    0.0000 C   0  0  0  0  0  0  0  0  0  0  0  0
    5.2500   -1.2990    0.0000 C   0  0  0  0  0  0  0  0  0  0  0  0
    6.0000    0.0000    0.0000 O   0  0  0  0  0  0  0  0  0  0  0  0
    6.0000   -2.5981    0.0000 N   0  0  0  0  0  0  0  0  0  0  0  0
    7.5000   -2.5981    0.0000 C   0  0  0  0  0  0  0  0  0  0  0  0
    8.2500   -3.8971    0.0000 C   0  0  0  0  0  0  0  0  0  0  0  0
    9.7500   -3.8971    0.0000 C   0  0  0  0  0  0  0  0  0  0  0  0
   11.2500   -3.8971    0.0000 C   0  0  0  0  0  0  0  0  0  0  0  0
    8.2500   -1.2990    0.0000 C   0  0  0  0  0  0  0  0  0  0  0  0
    7.5000    0.0000    0.0000 O   0  0  0  0  0  0  0  0  0  0  0  0
    9.7500   -1.2990    0.0000 O   0  0  0  0  0  0  0  0  0  0  0  0
  2  1  1  1
  2  3  1  0
  3  4  1  0
  3  5  1  0
  2  6  1  0
  6  7  2  0
  6  8  1  0
  8  9  1  0
  9 10  1  1
 10 11  1  0
 11 12  2  0
 12 13  1  0
 13 14  2  0
 14 15  1  0
 15 16  2  0
  9 17  1  0
 17 18  2  0
 17 19  1  0
 19 20  1  0
 20 21  1  6
 21 22  1  0
 22 23  3  0
 20 24  1  0
 24 25  2  0
 24 26  1  0
 16 11  1  0
M  END
$$$$

     RDKit          2D

 28 28  0  0  0  0  0  0  0  0999 V2000
    1.5000   -5.1962    0.0000 N   0  0  0  0  0  0  0  0  0  0  0  0
    0.7500   -6.4952    0.0000 C   0  0  0  0  0  0  0  0  0  0  0  0
    3.0000   -5.1962    0.0000 C   0  0  0  0  0  0  0  0  0  0  0  0
    3.7500   -6.4952    0.0000 C   0  0  0  0  0  0  0  0  0  0  0  0
    3.0000   -7.7942    0.0000 C   0  0  0  0  0  0  0  0  0  0  0  0
    3.7500   -9.0933    0.0000 C   0  0  0  0  0  0  0  0  0  0  0  0
    1.5000   -7.7942    0.0000 C   0  0  0  0  0  0  0  0  0  0  0  0
    3.7500   -3.8971    0.0000 C   0  0  0  0  0  0  0  0  0  0  0  0
    5.2500   -3.8971    0.0000 O   0  0  0  0  0  0  0  0  0  0  0  0
    3.0000   -2.5981    0.0000 N   0  0  0  0  0  0  0  0  0  0  0  0
    3.7500   -1.2990    0.0000 C   0  0  0  0  0  0  0  0  0  0  0  0
    3.0000    0.0000    0.0000 C   0  0  0  0  0  0  0  0  0  0  0  0
    1.5000    0.0000    0.0000 C   0  0  0  0  0  0  0  0  0  0  0  0
    0.7500   -1.2990    0.0000 C   0  0  0  0  0  0  0  0  0  0  0  0
   -0.7500   -1.2990    0.0000 C   0  0  0  0  0  0  0  0  0  0  0  0
   -1.5000    0.0000    0.0000 C   0  0  0  0  0  0  0  0  0  0  0  0
   -0.7500    1.2990    0.0000 C   0  0  0  0  0  0  0  0  0  0  0  0
    0.7500    1.2990    0.0000 C   0  0  0  0  0  0  0  0  0  0  0  0
    5.2500   -1.2990    0.0000 C   0  0  0  0  0  0  0  0  0  0  0  0
    6.0000    0.0000    0.0000 O   0  0  0  0  0  0  0  0  0  0  0  0
    6.0000   -2.5981    0.0000 N   0  0  0  0  0  0  0  0  0  0  0  0
    7.5000   -2.5981    0.0000 C   0  0  0  0  0  0  0  0  0  0  0  0
    8.2500   -3.8971    0.0000 C   0  0  0  0  0  0  0  0  0  0  0  0
    9.7500   -3.8971    0.0000 C   0  0  0  0  0  0  0  0  0  0  0  0
   11.2500   -3.8971    0.0000 C   0  0  0  0  0  0  0  0  0  0  0  0
    8.2500   -1.2990    0.0000 C   0  0  0  0  0  0  0  0  0  0  0  0
    7.5000    0.0000    0.0000 O   0  0  0  0  0  0  0  0  0  0  0  0
    9.7500   -1.2990    0.0000 O   0  0  0  0  0  0  0  0  0  0  0  0
  1  2  1  0
  1  3  1  0
  3  4  1  6
  4  5  1  0
  5  6  1  0
  5  7  1  0
  3  8  1  0
  8  9  2  0
  8 10  1  0
 10 11  1  0
 11 12  1  1
 12 13  1  0
 13 14  2  0
 14 15  1  0
 15 16  2  0
 16 17  1  0
 17 18  2  0
 11 19  1  0
 19 20  2  0
 19 21  1  0
 21 22  1  0
 22 23  1  6
 23 24  1  0
 24 25  3  0
 22 26  1  0
 26 27  2  0
 26 28  1  0
 18 13  1  0
M  END
$$$$

     RDKit          2D

 28 28  0  0  0  0  0  0  0  0999 V2000
    1.5000   -5.1962    0.0000 N   0  0  0  0  0  0  0  0  0  0  0  0
    0.7500   -6.4952    0.0000 C   0  0  0  0  0  0  0  0  0  0  0  0
    3.0000   -5.1962    0.0000 C   0  0  0  0  0  0  0  0  0  0  0  0
    3.7500   -6.4952    0.0000 C   0  0  0  0  0  0  0  0  0  0  0  0
    3.0000   -7.7942    0.0000 C   0  0  0  0  0  0  0  0  0  0  0  0
    3.7500   -9.0933    0.0000 C   0  0  0  0  0  0  0  0  0  0  0  0
    1.5000   -7.7942    0.0000 C   0  0  0  0  0  0  0  0  0  0  0  0
    3.7500   -3.8971    0.0000 C   0  0  0  0  0  0  0  0  0  0  0  0
    5.2500   -3.8971    0.0000 O   0  0  0  0  0  0  0  0  0  0  0  0
    3.0000   -2.5981    0.0000 N   0  0  0  0  0  0  0  0  0  0  0  0
    3.7500   -1.2990    0.0000 C   0  0  0  0  0  0  0  0  0  0  0  0
    3.0000    0.0000    0.0000 C   0  0  0  0  0  0  0  0  0  0  0  0
    1.5000    0.0000    0.0000 C   0  0  0  0  0  0  0  0  0  0  0  0
    0.7500   -1.2990    0.0000 C   0  0  0  0  0  0  0  0  0  0  0  0
   -0.7500   -1.2990    0.0000 C   0  0  0  0  0  0  0  0  0  0  0  0
   -1.5000    0.0000    0.0000 C   0  0  0  0  0  0  0  0  0  0  0  0
   -0.7500    1.2990    0.0000 C   0  0  0  0  0  0  0  0  0  0  0  0
    0.7500    1.2990    0.0000 C   0  0  0  0  0  0  0  0  0  0  0  0
    5.2500   -1.2990    0.0000 C   0  0  0  0  0  0  0  0  0  0  0  0
    6.0000    0.0000    0.0000 O   0  0  0  0  0  0  0  0  0  0  0  0
    6.0000   -2.5981    0.0000 N   0  0  0  0  0  0  0  0  0  0  0  0
    7.5000   -2.5981    0.0000 C   0  0  0  0  0  0  0  0  0  0  0  0
    8.2500   -3.8971    0.0000 C   0  0  0  0  0  0  0  0  0  0  0  0
    9.7500   -3.8971    0.0000 C   0  0  0  0  0  0  0  0  0  0  0  0
   11.2500   -3.8971    0.0000 C   0  0  0  0  0  0  0  0  0  0  0  0
    8.2500   -1.2990    0.0000 C   0  0  0  0  0  0  0  0  0  0  0  0
    7.5000    0.0000    0.0000 O   0  0  0  0  0  0  0  0  0  0  0  0
    9.7500   -1.2990    0.0000 O   0  0  0  0  0  0  0  0  0  0  0  0
  1  2  1  0
  1  3  1  0
  3  4  1  1
  4  5  1  0
  5  6  1  0
  5  7  1  0
  3  8  1  0
  8  9  2  0
  8 10  1  0
 10 11  1  0
 11 12  1  1
 12 13  1  0
 13 14  2  0
 14 15  1  0
 15 16  2  0
 16 17  1  0
 17 18  2  0
 11 19  1  0
 19 20  2  0
 19 21  1  0
 21 22  1  0
 22 23  1  6
 23 24  1  0
 24 25  3  0
 22 26  1  0
 26 27  2  0
 26 28  1  0
 18 13  1  0
M  END
$$$$

     RDKit          2D

 30 31  0  0  0  0  0  0  0  0999 V2000
   -0.7500   -3.8971    0.0000 N   0  0  0  0  0  0  0  0  0  0  0  0
    0.7500   -3.8971    0.0000 C   0  0  0  0  0  0  0  0  0  0  0  0
    1.5000   -2.5981    0.0000 C   0  0  0  0  0  0  0  0  0  0  0  0
    0.7500   -1.2990    0.0000 C   0  0  0  0  0  0  0  0  0  0  0  0
    1.5000    0.0000    0.0000 C   0  0  0  0  0  0  0  0  0  0  0  0
    0.7500    1.2990    0.0000 C   0  0  0  0  0  0  0  0  0  0  0  0
   -0.7500    1.2990    0.0000 C   0  0  0  0  0  0  0  0  0  0  0  0
   -1.5000    0.0000    0.0000 C   0  0  0  0  0  0  0  0  0  0  0  0
   -0.7500   -1.2990    0.0000 C   0  0  0  0  0  0  0  0  0  0  0  0
    1.5000   -5.1962    0.0000 C   0  0  0  0  0  0  0  0  0  0  0  0
    3.0000   -5.1962    0.0000 O   0  0  0  0  0  0  0  0  0  0  0  0
    0.7500   -6.4952    0.0000 N   0  0  0  0  0  0  0  0  0  0  0  0
    1.5000   -7.7942    0.0000 C   0  0  0  0  0  0  0  0  0  0  0  0
    0.7500   -9.0933    0.0000 C   0  0  0  0  0  0  0  0  0  0  0  0
    1.5000  -10.3923    0.0000 C   0  0  0  0  0  0  0  0  0  0  0  0
    0.7500  -11.6913    0.0000 C   0  0  0  0  0  0  0  0  0  0  0  0
    1.5000  -12.9904    0.0000 C   0  0  0  0  0  0  0  0  0  0  0  0
    3.0000  -12.9904    0.0000 C   0  0  0  0  0  0  0  0  0  0  0  0
    3.7500  -11.6913    0.0000 C   0  0  0  0  0  0  0  0  0  0  0  0
    3.0000  -10.3923    0.0000 C   0  0  0  0  0  0  0  0  0  0  0  0
    3.0000   -7.7942    0.0000 C   0  0  0  0  0  0  0  0  0  0  0  0
    3.7500   -6.4952    0.0000 O   0  0  0  0  0  0  0  0  0  0  0  0
    3.7500   -9.0933    0.0000 N   0  0  0  0  0  0  0  0  0  0  0  0
    5.2500   -9.0933    0.0000 C   0  0  0  0  0  0  0  0  0  0  0  0
    6.0000  -10.3923    0.0000 C   0  0  0  0  0  0  0  0  0  0  0  0
    7.5000  -10.3923    0.0000 C   0  0  0  0  0  0  0  0  0  0  0  0
    9.0000  -10.3923    0.0000 C   0  0  0  0  0  0  0  0  0  0  0  0
    6.0000   -7.7942    0.0000 C   0  0  0  0  0  0  0  0  0  0  0  0
    5.2500   -6.4952    0.0000 O   0  0  0  0  0  0  0  0  0  0  0  0
    7.5000   -7.7942    0.0000 O   0  0  0  0  0  0  0  0  0  0  0  0
  2  1  1  1
  2  3  1  0
  3  4  1  0
  4  5  2  0
  5  6  1  0
  6  7  2  0
  7  8  1  0
  8  9  2  0
  2 10  1  0
 10 11  2  0
 10 12  1  0
 12 13  1  0
 13 14  1  6
 14 15  1  0
 15 16  2  0
 16 17  1  0
 17 18  2  0
 18 19  1  0
 19 20  2  0
 13 21  1  0
 21 22  2  0
 21 23  1  0
 23 24  1  0
 24 25  1  6
 25 26  1  0
 26 27  3  0
 24 28  1  0
 28 29  2  0
 28 30  1  0
  9  4  1  0
 20 15  1  0
M  END
$$$$

     RDKit          2D

 30 31  0  0  0  0  0  0  0  0999 V2000
   -0.7500   -3.8971    0.0000 N   0  0  0  0  0  0  0  0  0  0  0  0
    0.7500   -3.8971    0.0000 C   0  0  0  0  0  0  0  0  0  0  0  0
    1.5000   -2.5981    0.0000 C   0  0  0  0  0  0  0  0  0  0  0  0
    0.7500   -1.2990    0.0000 C   0  0  0  0  0  0  0  0  0  0  0  0
    1.5000    0.0000    0.0000 C   0  0  0  0  0  0  0  0  0  0  0  0
    0.7500    1.2990    0.0000 C   0  0  0  0  0  0  0  0  0  0  0  0
   -0.7500    1.2990    0.0000 C   0  0  0  0  0  0  0  0  0  0  0  0
   -1.5000    0.0000    0.0000 C   0  0  0  0  0  0  0  0  0  0  0  0
   -0.7500   -1.2990    0.0000 C   0  0  0  0  0  0  0  0  0  0  0  0
    1.5000   -5.1962    0.0000 C   0  0  0  0  0  0  0  0  0  0  0  0
    3.0000   -5.1962    0.0000 O   0  0  0  0  0  0  0  0  0  0  0  0
    0.7500   -6.4952    0.0000 N   0  0  0  0  0  0  0  0  0  0  0  0
    1.5000   -7.7942    0.0000 C   0  0  0  0  0  0  0  0  0  0  0  0
    0.7500   -9.0933    0.0000 C   0  0  0  0  0  0  0  0  0  0  0  0
    1.5000  -10.3923    0.0000 C   0  0  0  0  0  0  0  0  0  0  0  0
    0.7500  -11.6913    0.0000 C   0  0  0  0  0  0  0  0  0  0  0  0
    1.5000  -12.9904    0.0000 C   0  0  0  0  0  0  0  0  0  0  0  0
    3.0000  -12.9904    0.0000 C   0  0  0  0  0  0  0  0  0  0  0  0
    3.7500  -11.6913    0.0000 C   0  0  0  0  0  0  0  0  0  0  0  0
    3.0000  -10.3923    0.0000 C   0  0  0  0  0  0  0  0  0  0  0  0
    3.0000   -7.7942    0.0000 C   0  0  0  0  0  0  0  0  0  0  0  0
    3.7500   -6.4952    0.0000 O   0  0  0  0  0  0  0  0  0  0  0  0
    3.7500   -9.0933    0.0000 N   0  0  0  0  0  0  0  0  0  0  0  0
    5.2500   -9.0933    0.0000 C   0  0  0  0  0  0  0  0  0  0  0  0
    6.0000  -10.3923    0.0000 C   0  0  0  0  0  0  0  0  0  0  0  0
    7.5000  -10.3923    0.0000 C   0  0  0  0  0  0  0  0  0  0  0  0
    9.0000  -10.3923    0.0000 C   0  0  0  0  0  0  0  0  0  0  0  0
    6.0000   -7.7942    0.0000 C   0  0  0  0  0  0  0  0  0  0  0  0
    5.2500   -6.4952    0.0000 O   0  0  0  0  0  0  0  0  0  0  0  0
    7.5000   -7.7942    0.0000 O   0  0  0  0  0  0  0  0  0  0  0  0
  2  1  1  6
  2  3  1  0
  3  4  1  0
  4  5  2  0
  5  6  1  0
  6  7  2  0
  7  8  1  0
  8  9  2  0
  2 10  1  0
 10 11  2  0
 10 12  1  0
 12 13  1  0
 13 14  1  6
 14 15  1  0
 15 16  2  0
 16 17  1  0
 17 18  2  0
 18 19  1  0
 19 20  2  0
 13 21  1  0
 21 22  2  0
 21 23  1  0
 23 24  1  0
 24 25  1  6
 25 26  1  0
 26 27  3  0
 24 28  1  0
 28 29  2  0
 28 30  1  0
  9  4  1  0
 20 15  1  0
M  END
$$$$

     RDKit          2D

 31 32  0  0  0  0  0  0  0  0999 V2000
   -0.7500   -3.8971    0.0000 N   0  0  0  0  0  0  0  0  0  0  0  0
   -1.5000   -5.1962    0.0000 C   0  0  0  0  0  0  0  0  0  0  0  0
    0.7500   -3.8971    0.0000 C   0  0  0  0  0  0  0  0  0  0  0  0
    1.5000   -2.5981    0.0000 C   0  0  0  0  0  0  0  0  0  0  0  0
    0.7500   -1.2990    0.0000 C   0  0  0  0  0  0  0  0  0  0  0  0
    1.5000    0.0000    0.0000 C   0  0  0  0  0  0  0  0  0  0  0  0
    0.7500    1.2990    0.0000 C   0  0  0  0  0  0  0  0  0  0  0  0
   -0.7500    1.2990    0.0000 C   0  0  0  0  0  0  0  0  0  0  0  0
   -1.5000    0.0000    0.0000 C   0  0  0  0  0  0  0  0  0  0  0  0
   -0.7500   -1.2990    0.0000 C   0  0  0  0  0  0  0  0  0  0  0  0
    1.5000   -5.1962    0.0000 C   0  0  0  0  0  0  0  0  0  0  0  0
    3.0000   -5.1962    0.0000 O   0  0  0  0  0  0  0  0  0  0  0  0
    0.7500   -6.4952    0.0000 N   0  0  0  0  0  0  0  0  0  0  0  0
    1.5000   -7.7942    0.0000 C   0  0  0  0  0  0  0  0  0  0  0  0
    0.7500   -9.0933    0.0000 C   0  0  0  0  0  0  0  0  0  0  0  0
    1.5000  -10.3923    0.0000 C   0  0  0  0  0  0  0  0  0  0  0  0
    0.7500  -11.6913    0.0000 C   0  0  0  0  0  0  0  0  0  0  0  0
    1.5000  -12.9904    0.0000 C   0  0  0  0  0  0  0  0  0  0  0  0
    3.0000  -12.9904    0.0000 C   0  0  0  0  0  0  0  0  0  0  0  0
    3.7500  -11.6913    0.0000 C   0  0  0  0  0  0  0  0  0  0  0  0
    3.0000  -10.3923    0.0000 C   0  0  0  0  0  0  0  0  0  0  0  0
    3.0000   -7.7942    0.0000 C   0  0  0  0  0  0  0  0  0  0  0  0
    3.7500   -6.4952    0.0000 O   0  0  0  0  0  0  0  0  0  0  0  0
    3.7500   -9.0933    0.0000 N   0  0  0  0  0  0  0  0  0  0  0  0
    5.2500   -9.0933    0.0000 C   0  0  0  0  0  0  0  0  0  0  0  0
    6.0000  -10.3923    0.0000 C   0  0  0  0  0  0  0  0  0  0  0  0
    7.5000  -10.3923    0.0000 C   0  0  0  0  0  0  0  0  0  0  0  0
    9.0000  -10.3923    0.0000 C   0  0  0  0  0  0  0  0  0  0  0  0
    6.0000   -7.7942    0.0000 C   0  0  0  0  0  0  0  0  0  0  0  0
    5.2500   -6.4952    0.0000 O   0  0  0  0  0  0  0  0  0  0  0  0
    7.5000   -7.7942    0.0000 O   0  0  0  0  0  0  0  0  0  0  0  0
  1  2  1  0
  1  3  1  0
  3  4  1  1
  4  5  1  0
  5  6  2  0
  6  7  1  0
  7  8  2  0
  8  9  1  0
  9 10  2  0
  3 11  1  0
 11 12  2  0
 11 13  1  0
 13 14  1  0
 14 15  1  6
 15 16  1  0
 16 17  2  0
 17 18  1  0
 18 19  2  0
 19 20  1  0
 20 21  2  0
 14 22  1  0
 22 23  2  0
 22 24  1  0
 24 25  1  0
 25 26  1  6
 26 27  1  0
 27 28  3  0
 25 29  1  0
 29 30  2  0
 29 31  1  0
 10  5  1  0
 21 16  1  0
M  END
$$$$

     RDKit          2D

 31 32  0  0  0  0  0  0  0  0999 V2000
   -0.7500   -3.8971    0.0000 N   0  0  0  0  0  0  0  0  0  0  0  0
   -1.5000   -5.1962    0.0000 C   0  0  0  0  0  0  0  0  0  0  0  0
    0.7500   -3.8971    0.0000 C   0  0  0  0  0  0  0  0  0  0  0  0
    1.5000   -2.5981    0.0000 C   0  0  0  0  0  0  0  0  0  0  0  0
    0.7500   -1.2990    0.0000 C   0  0  0  0  0  0  0  0  0  0  0  0
    1.5000    0.0000    0.0000 C   0  0  0  0  0  0  0  0  0  0  0  0
    0.7500    1.2990    0.0000 C   0  0  0  0  0  0  0  0  0  0  0  0
   -0.7500    1.2990    0.0000 C   0  0  0  0  0  0  0  0  0  0  0  0
   -1.5000    0.0000    0.0000 C   0  0  0  0  0  0  0  0  0  0  0  0
   -0.7500   -1.2990    0.0000 C   0  0  0  0  0  0  0  0  0  0  0  0
    1.5000   -5.1962    0.0000 C   0  0  0  0  0  0  0  0  0  0  0  0
    3.0000   -5.1962    0.0000 O   0  0  0  0  0  0  0  0  0  0  0  0
    0.7500   -6.4952    0.0000 N   0  0  0  0  0  0  0  0  0  0  0  0
    1.5000   -7.7942    0.0000 C   0  0  0  0  0  0  0  0  0  0  0  0
    0.7500   -9.0933    0.0000 C   0  0  0  0  0  0  0  0  0  0  0  0
    1.5000  -10.3923    0.0000 C   0  0  0  0  0  0  0  0  0  0  0  0
    0.7500  -11.6913    0.0000 C   0  0  0  0  0  0  0  0  0  0  0  0
    1.5000  -12.9904    0.0000 C   0  0  0  0  0  0  0  0  0  0  0  0
    3.0000  -12.9904    0.0000 C   0  0  0  0  0  0  0  0  0  0  0  0
    3.7500  -11.6913    0.0000 C   0  0  0  0  0  0  0  0  0  0  0  0
    3.0000  -10.3923    0.0000 C   0  0  0  0  0  0  0  0  0  0  0  0
    3.0000   -7.7942    0.0000 C   0  0  0  0  0  0  0  0  0  0  0  0
    3.7500   -6.4952    0.0000 O   0  0  0  0  0  0  0  0  0  0  0  0
    3.7500   -9.0933    0.0000 N   0  0  0  0  0  0  0  0  0  0  0  0
    5.2500   -9.0933    0.0000 C   0  0  0  0  0  0  0  0  0  0  0  0
    6.0000  -10.3923    0.0000 C   0  0  0  0  0  0  0  0  0  0  0  0
    7.5000  -10.3923    0.0000 C   0  0  0  0  0  0  0  0  0  0  0  0
    9.0000  -10.3923    0.0000 C   0  0  0  0  0  0  0  0  0  0  0  0
    6.0000   -7.7942    0.0000 C   0  0  0  0  0  0  0  0  0  0  0  0
    5.2500   -6.4952    0.0000 O   0  0  0  0  0  0  0  0  0  0  0  0
    7.5000   -7.7942    0.0000 O   0  0  0  0  0  0  0  0  0  0  0  0
  1  2  1  0
  1  3  1  0
  3  4  1  6
  4  5  1  0
  5  6  2  0
  6  7  1  0
  7  8  2  0
  8  9  1  0
  9 10  2  0
  3 11  1  0
 11 12  2  0
 11 13  1  0
 13 14  1  0
 14 15  1  6
 15 16  1  0
 16 17  2  0
 17 18  1  0
 18 19  2  0
 19 20  1  0
 20 21  2  0
 14 22  1  0
 22 23  2  0
 22 24  1  0
 24 25  1  0
 25 26  1  6
 26 27  1  0
 27 28  3  0
 25 29  1  0
 29 30  2  0
 29 31  1  0
 10  5  1  0
 21 16  1  0
M  END
$$$$

     RDKit          2D

 26 26  0  0  0  0  0  0  0  0999 V2000
    1.5000   -5.1962    0.0000 N   0  0  0  0  0  0  0  0  0  0  0  0
    3.0000   -5.1962    0.0000 C   0  0  0  0  0  0  0  0  0  0  0  0
    3.7500   -6.4952    0.0000 C   0  0  0  0  0  0  0  0  0  0  0  0
    5.2500   -6.4952    0.0000 O   0  0  0  0  0  0  0  0  0  0  0  0
    3.0000   -7.7942    0.0000 C   0  0  0  0  0  0  0  0  0  0  0  0
    3.7500   -3.8971    0.0000 C   0  0  0  0  0  0  0  0  0  0  0  0
    5.2500   -3.8971    0.0000 O   0  0  0  0  0  0  0  0  0  0  0  0
    3.0000   -2.5981    0.0000 N   0  0  0  0  0  0  0  0  0  0  0  0
    3.7500   -1.2990    0.0000 C   0  0  0  0  0  0  0  0  0  0  0  0
    3.0000    0.0000    0.0000 C   0  0  0  0  0  0  0  0  0  0  0  0
    1.5000    0.0000    0.0000 C   0  0  0  0  0  0  0  0  0  0  0  0
    0.7500   -1.2990    0.0000 C   0  0  0  0  0  0  0  0  0  0  0  0
   -0.7500   -1.2990    0.0000 C   0  0  0  0  0  0  0  0  0  0  0  0
   -1.5000    0.0000    0.0000 C   0  0  0  0  0  0  0  0  0  0  0  0
   -0.7500    1.2990    0.0000 C   0  0  0  0  0  0  0  0  0  0  0  0
    0.7500    1.2990    0.0000 C   0  0  0  0  0  0  0  0  0  0  0  0
    5.2500   -1.2990    0.0000 C   0  0  0  0  0  0  0  0  0  0  0  0
    6.0000    0.0000    0.0000 O   0  0  0  0  0  0  0  0  0  0  0  0
    6.0000   -2.5981    0.0000 N   0  0  0  0  0  0  0  0  0  0  0  0
    7.5000   -2.5981    0.0000 C   0  0  0  0  0  0  0  0  0  0  0  0
    8.2500   -3.8971    0.0000 C   0  0  0  0  0  0  0  0  0  0  0  0
    9.7500   -3.8971    0.0000 C   0  0  0  0  0  0  0  0  0  0  0  0
   11.2500   -3.8971    0.0000 C   0  0  0  0  0  0  0  0  0  0  0  0
    8.2500   -1.2990    0.0000 C   0  0  0  0  0  0  0  0  0  0  0  0
    7.5000    0.0000    0.0000 O   0  0  0  0  0  0  0  0  0  0  0  0
    9.7500   -1.2990    0.0000 O   0  0  0  0  0  0  0  0  0  0  0  0
  2  1  1  6
  2  3  1  0
  3  4  1  0
  3  5  1  6
  2  6  1  0
  6  7  2  0
  6  8  1  0
  8  9  1  0
  9 10  1  1
 10 11  1  0
 11 12  2  0
 12 13  1  0
 13 14  2  0
 14 15  1  0
 15 16  2  0
  9 17  1  0
 17 18  2  0
 17 19  1  0
 19 20  1  0
 20 21  1  6
 21 22  1  0
 22 23  3  0
 20 24  1  0
 24 25  2  0
 24 26  1  0
 16 11  1  0
M  END
$$$$

     RDKit          2D

 26 26  0  0  0  0  0  0  0  0999 V2000
    1.5000   -5.1962    0.0000 N   0  0  0  0  0  0  0  0  0  0  0  0
    3.0000   -5.1962    0.0000 C   0  0  0  0  0  0  0  0  0  0  0  0
    3.7500   -6.4952    0.0000 C   0  0  0  0  0  0  0  0  0  0  0  0
    5.2500   -6.4952    0.0000 O   0  0  0  0  0  0  0  0  0  0  0  0
    3.0000   -7.7942    0.0000 C   0  0  0  0  0  0  0  0  0  0  0  0
    3.7500   -3.8971    0.0000 C   0  0  0  0  0  0  0  0  0  0  0  0
    5.2500   -3.8971    0.0000 O   0  0  0  0  0  0  0  0  0  0  0  0
    3.0000   -2.5981    0.0000 N   0  0  0  0  0  0  0  0  0  0  0  0
    3.7500   -1.2990    0.0000 C   0  0  0  0  0  0  0  0  0  0  0  0
    3.0000    0.0000    0.0000 C   0  0  0  0  0  0  0  0  0  0  0  0
    1.5000    0.0000    0.0000 C   0  0  0  0  0  0  0  0  0  0  0  0
    0.7500   -1.2990    0.0000 C   0  0  0  0  0  0  0  0  0  0  0  0
   -0.7500   -1.2990    0.0000 C   0  0  0  0  0  0  0  0  0  0  0  0
   -1.5000    0.0000    0.0000 C   0  0  0  0  0  0  0  0  0  0  0  0
   -0.7500    1.2990    0.0000 C   0  0  0  0  0  0  0  0  0  0  0  0
    0.7500    1.2990    0.0000 C   0  0  0  0  0  0  0  0  0  0  0  0
    5.2500   -1.2990    0.0000 C   0  0  0  0  0  0  0  0  0  0  0  0
    6.0000    0.0000    0.0000 O   0  0  0  0  0  0  0  0  0  0  0  0
    6.0000   -2.5981    0.0000 N   0  0  0  0  0  0  0  0  0  0  0  0
    7.5000   -2.5981    0.0000 C   0  0  0  0  0  0  0  0  0  0  0  0
    8.2500   -3.8971    0.0000 C   0  0  0  0  0  0  0  0  0  0  0  0
    9.7500   -3.8971    0.0000 C   0  0  0  0  0  0  0  0  0  0  0  0
   11.2500   -3.8971    0.0000 C   0  0  0  0  0  0  0  0  0  0  0  0
    8.2500   -1.2990    0.0000 C   0  0  0  0  0  0  0  0  0  0  0  0
    7.5000    0.0000    0.0000 O   0  0  0  0  0  0  0  0  0  0  0  0
    9.7500   -1.2990    0.0000 O   0  0  0  0  0  0  0  0  0  0  0  0
  2  1  1  1
  2  3  1  0
  3  4  1  0
  3  5  1  6
  2  6  1  0
  6  7  2  0
  6  8  1  0
  8  9  1  0
  9 10  1  1
 10 11  1  0
 11 12  2  0
 12 13  1  0
 13 14  2  0
 14 15  1  0
 15 16  2  0
  9 17  1  0
 17 18  2  0
 17 19  1  0
 19 20  1  0
 20 21  1  6
 21 22  1  0
 22 23  3  0
 20 24  1  0
 24 25  2  0
 24 26  1  0
 16 11  1  0
M  END
$$$$

     RDKit          2D

 27 27  0  0  0  0  0  0  0  0999 V2000
    1.5000   -5.1962    0.0000 N   0  0  0  0  0  0  0  0  0  0  0  0
    0.7500   -6.4952    0.0000 C   0  0  0  0  0  0  0  0  0  0  0  0
    3.0000   -5.1962    0.0000 C   0  0  0  0  0  0  0  0  0  0  0  0
    3.7500   -6.4952    0.0000 C   0  0  0  0  0  0  0  0  0  0  0  0
    5.2500   -6.4952    0.0000 O   0  0  0  0  0  0  0  0  0  0  0  0
    3.0000   -7.7942    0.0000 C   0  0  0  0  0  0  0  0  0  0  0  0
    3.7500   -3.8971    0.0000 C   0  0  0  0  0  0  0  0  0  0  0  0
    5.2500   -3.8971    0.0000 O   0  0  0  0  0  0  0  0  0  0  0  0
    3.0000   -2.5981    0.0000 N   0  0  0  0  0  0  0  0  0  0  0  0
    3.7500   -1.2990    0.0000 C   0  0  0  0  0  0  0  0  0  0  0  0
    3.0000    0.0000    0.0000 C   0  0  0  0  0  0  0  0  0  0  0  0
    1.5000    0.0000    0.0000 C   0  0  0  0  0  0  0  0  0  0  0  0
    0.7500   -1.2990    0.0000 C   0  0  0  0  0  0  0  0  0  0  0  0
   -0.7500   -1.2990    0.0000 C   0  0  0  0  0  0  0  0  0  0  0  0
   -1.5000    0.0000    0.0000 C   0  0  0  0  0  0  0  0  0  0  0  0
   -0.7500    1.2990    0.0000 C   0  0  0  0  0  0  0  0  0  0  0  0
    0.7500    1.2990    0.0000 C   0  0  0  0  0  0  0  0  0  0  0  0
    5.2500   -1.2990    0.0000 C   0  0  0  0  0  0  0  0  0  0  0  0
    6.0000    0.0000    0.0000 O   0  0  0  0  0  0  0  0  0  0  0  0
    6.0000   -2.5981    0.0000 N   0  0  0  0  0  0  0  0  0  0  0  0
    7.5000   -2.5981    0.0000 C   0  0  0  0  0  0  0  0  0  0  0  0
    8.2500   -3.8971    0.0000 C   0  0  0  0  0  0  0  0  0  0  0  0
    9.7500   -3.8971    0.0000 C   0  0  0  0  0  0  0  0  0  0  0  0
   11.2500   -3.8971    0.0000 C   0  0  0  0  0  0  0  0  0  0  0  0
    8.2500   -1.2990    0.0000 C   0  0  0  0  0  0  0  0  0  0  0  0
    7.5000    0.0000    0.0000 O   0  0  0  0  0  0  0  0  0  0  0  0
    9.7500   -1.2990    0.0000 O   0  0  0  0  0  0  0  0  0  0  0  0
  1  2  1  0
  3  1  1  6
  3  4  1  0
  4  5  1  0
  4  6  1  6
  3  7  1  0
  7  8  2  0
  7  9  1  0
  9 10  1  0
 10 11  1  1
 11 12  1  0
 12 13  2  0
 13 14  1  0
 14 15  2  0
 15 16  1  0
 16 17  2  0
 10 18  1  0
 18 19  2  0
 18 20  1  0
 20 21  1  0
 21 22  1  6
 22 23  1  0
 23 24  3  0
 21 25  1  0
 25 26  2  0
 25 27  1  0
 17 12  1  0
M  END
$$$$

     RDKit          2D

 27 27  0  0  0  0  0  0  0  0999 V2000
    1.5000   -5.1962    0.0000 N   0  0  0  0  0  0  0  0  0  0  0  0
    0.7500   -6.4952    0.0000 C   0  0  0  0  0  0  0  0  0  0  0  0
    3.0000   -5.1962    0.0000 C   0  0  0  0  0  0  0  0  0  0  0  0
    3.7500   -6.4952    0.0000 C   0  0  0  0  0  0  0  0  0  0  0  0
    5.2500   -6.4952    0.0000 O   0  0  0  0  0  0  0  0  0  0  0  0
    3.0000   -7.7942    0.0000 C   0  0  0  0  0  0  0  0  0  0  0  0
    3.7500   -3.8971    0.0000 C   0  0  0  0  0  0  0  0  0  0  0  0
    5.2500   -3.8971    0.0000 O   0  0  0  0  0  0  0  0  0  0  0  0
    3.0000   -2.5981    0.0000 N   0  0  0  0  0  0  0  0  0  0  0  0
    3.7500   -1.2990    0.0000 C   0  0  0  0  0  0  0  0  0  0  0  0
    3.0000    0.0000    0.0000 C   0  0  0  0  0  0  0  0  0  0  0  0
    1.5000    0.0000    0.0000 C   0  0  0  0  0  0  0  0  0  0  0  0
    0.7500   -1.2990    0.0000 C   0  0  0  0  0  0  0  0  0  0  0  0
   -0.7500   -1.2990    0.0000 C   0  0  0  0  0  0  0  0  0  0  0  0
   -1.5000    0.0000    0.0000 C   0  0  0  0  0  0  0  0  0  0  0  0
   -0.7500    1.2990    0.0000 C   0  0  0  0  0  0  0  0  0  0  0  0
    0.7500    1.2990    0.0000 C   0  0  0  0  0  0  0  0  0  0  0  0
    5.2500   -1.2990    0.0000 C   0  0  0  0  0  0  0  0  0  0  0  0
    6.0000    0.0000    0.0000 O   0  0  0  0  0  0  0  0  0  0  0  0
    6.0000   -2.5981    0.0000 N   0  0  0  0  0  0  0  0  0  0  0  0
    7.5000   -2.5981    0.0000 C   0  0  0  0  0  0  0  0  0  0  0  0
    8.2500   -3.8971    0.0000 C   0  0  0  0  0  0  0  0  0  0  0  0
    9.7500   -3.8971    0.0000 C   0  0  0  0  0  0  0  0  0  0  0  0
   11.2500   -3.8971    0.0000 C   0  0  0  0  0  0  0  0  0  0  0  0
    8.2500   -1.2990    0.0000 C   0  0  0  0  0  0  0  0  0  0  0  0
    7.5000    0.0000    0.0000 O   0  0  0  0  0  0  0  0  0  0  0  0
    9.7500   -1.2990    0.0000 O   0  0  0  0  0  0  0  0  0  0  0  0
  1  2  1  0
  3  1  1  1
  3  4  1  0
  4  5  1  0
  4  6  1  6
  3  7  1  0
  7  8  2  0
  7  9  1  0
  9 10  1  0
 10 11  1  1
 11 12  1  0
 12 13  2  0
 13 14  1  0
 14 15  2  0
 15 16  1  0
 16 17  2  0
 10 18  1  0
 18 19  2  0
 18 20  1  0
 20 21  1  0
 21 22  1  6
 22 23  1  0
 23 24  3  0
 21 25  1  0
 25 26  2  0
 25 27  1  0
 17 12  1  0
M  END
$$$$

     RDKit          2D

 27 27  0  0  0  0  0  0  0  0999 V2000
    3.7500   -6.4952    0.0000 N   0  0  0  0  0  0  0  0  0  0  0  0
    3.0000   -7.7942    0.0000 C   0  0  0  0  0  0  0  0  0  0  0  0
    3.7500   -9.0933    0.0000 C   0  0  0  0  0  0  0  0  0  0  0  0
    3.0000  -10.3923    0.0000 C   0  0  0  0  0  0  0  0  0  0  0  0
    5.2500   -9.0933    0.0000 C   0  0  0  0  0  0  0  0  0  0  0  0
    3.0000   -5.1962    0.0000 C   0  0  0  0  0  0  0  0  0  0  0  0
    3.7500   -3.8971    0.0000 C   0  0  0  0  0  0  0  0  0  0  0  0
    5.2500   -3.8971    0.0000 O   0  0  0  0  0  0  0  0  0  0  0  0
    3.0000   -2.5981    0.0000 N   0  0  0  0  0  0  0  0  0  0  0  0
    3.7500   -1.2990    0.0000 C   0  0  0  0  0  0  0  0  0  0  0  0
    3.0000    0.0000    0.0000 C   0  0  0  0  0  0  0  0  0  0  0  0
    1.5000    0.0000    0.0000 C   0  0  0  0  0  0  0  0  0  0  0  0
    0.7500   -1.2990    0.0000 C   0  0  0  0  0  0  0  0  0  0  0  0
   -0.7500   -1.2990    0.0000 C   0  0  0  0  0  0  0  0  0  0  0  0
   -1.5000    0.0000    0.0000 C   0  0  0  0  0  0  0  0  0  0  0  0
   -0.7500    1.2990    0.0000 C   0  0  0  0  0  0  0  0  0  0  0  0
    0.7500    1.2990    0.0000 C   0  0  0  0  0  0  0  0  0  0  0  0
    5.2500   -1.2990    0.0000 C   0  0  0  0  0  0  0  0  0  0  0  0
    6.0000    0.0000    0.0000 O   0  0  0  0  0  0  0  0  0  0  0  0
    6.0000   -2.5981    0.0000 N   0  0  0  0  0  0  0  0  0  0  0  0
    7.5000   -2.5981    0.0000 C   0  0  0  0  0  0  0  0  0  0  0  0
    8.2500   -3.8971    0.0000 C   0  0  0  0  0  0  0  0  0  0  0  0
    9.7500   -3.8971    0.0000 C   0  0  0  0  0  0  0  0  0  0  0  0
   11.2500   -3.8971    0.0000 C   0  0  0  0  0  0  0  0  0  0  0  0
    8.2500   -1.2990    0.0000 C   0  0  0  0  0  0  0  0  0  0  0  0
    7.5000    0.0000    0.0000 O   0  0  0  0  0  0  0  0  0  0  0  0
    9.7500   -1.2990    0.0000 O   0  0  0  0  0  0  0  0  0  0  0  0
  1  2  1  0
  2  3  1  0
  3  4  1  0
  3  5  1  0
  1  6  1  0
  6  7  1  0
  7  8  2  0
  7  9  1  0
  9 10  1  0
 10 11  1  1
 11 12  1  0
 12 13  2  0
 13 14  1  0
 14 15  2  0
 15 16  1  0
 16 17  2  0
 10 18  1  0
 18 19  2  0
 18 20  1  0
 20 21  1  0
 21 22  1  6
 22 23  1  0
 23 24  3  0
 21 25  1  0
 25 26  2  0
 25 27  1  0
 17 12  1  0
M  END
$$$$

     RDKit          2D

 30 30  0  0  0  0  0  0  0  0999 V2000
    3.7500   -6.4952    0.0000 N   0  0  0  0  0  0  0  0  0  0  0  0
    3.0000   -7.7942    0.0000 C   0  0  0  0  0  0  0  0  0  0  0  0
    3.7500   -9.0933    0.0000 C   0  0  0  0  0  0  0  0  0  0  0  0
    3.0000  -10.3923    0.0000 C   0  0  0  0  0  0  0  0  0  0  0  0
    3.7500  -11.6913    0.0000 O   0  0  0  0  0  0  0  0  0  0  0  0
    3.0000  -12.9904    0.0000 C   0  0  0  0  0  0  0  0  0  0  0  0
    3.7500  -14.2894    0.0000 C   0  0  0  0  0  0  0  0  0  0  0  0
    1.5000  -12.9904    0.0000 C   0  0  0  0  0  0  0  0  0  0  0  0
    3.0000   -5.1962    0.0000 C   0  0  0  0  0  0  0  0  0  0  0  0
    3.7500   -3.8971    0.0000 C   0  0  0  0  0  0  0  0  0  0  0  0
    5.2500   -3.8971    0.0000 O   0  0  0  0  0  0  0  0  0  0  0  0
    3.0000   -2.5981    0.0000 N   0  0  0  0  0  0  0  0  0  0  0  0
    3.7500   -1.2990    0.0000 C   0  0  0  0  0  0  0  0  0  0  0  0
    3.0000    0.0000    0.0000 C   0  0  0  0  0  0  0  0  0  0  0  0
    1.5000    0.0000    0.0000 C   0  0  0  0  0  0  0  0  0  0  0  0
    0.7500   -1.2990    0.0000 C   0  0  0  0  0  0  0  0  0  0  0  0
   -0.7500   -1.2990    0.0000 C   0  0  0  0  0  0  0  0  0  0  0  0
   -1.5000    0.0000    0.0000 C   0  0  0  0  0  0  0  0  0  0  0  0
   -0.7500    1.2990    0.0000 C   0  0  0  0  0  0  0  0  0  0  0  0
    0.7500    1.2990    0.0000 C   0  0  0  0  0  0  0  0  0  0  0  0
    5.2500   -1.2990    0.0000 C   0  0  0  0  0  0  0  0  0  0  0  0
    6.0000    0.0000    0.0000 O   0  0  0  0  0  0  0  0  0  0  0  0
    6.0000   -2.5981    0.0000 N   0  0  0  0  0  0  0  0  0  0  0  0
    7.5000   -2.5981    0.0000 C   0  0  0  0  0  0  0  0  0  0  0  0
    8.2500   -3.8971    0.0000 C   0  0  0  0  0  0  0  0  0  0  0  0
    9.7500   -3.8971    0.0000 C   0  0  0  0  0  0  0  0  0  0  0  0
   11.2500   -3.8971    0.0000 C   0  0  0  0  0  0  0  0  0  0  0  0
    8.2500   -1.2990    0.0000 C   0  0  0  0  0  0  0  0  0  0  0  0
    7.5000    0.0000    0.0000 O   0  0  0  0  0  0  0  0  0  0  0  0
    9.7500   -1.2990    0.0000 O   0  0  0  0  0  0  0  0  0  0  0  0
  1  2  1  0
  2  3  1  0
  3  4  1  0
  4  5  1  0
  5  6  1  0
  6  7  1  0
  6  8  1  0
  1  9  1  0
  9 10  1  0
 10 11  2  0
 10 12  1  0
 12 13  1  0
 13 14  1  1
 14 15  1  0
 15 16  2  0
 16 17  1  0
 17 18  2  0
 18 19  1  0
 19 20  2  0
 13 21  1  0
 21 22  2  0
 21 23  1  0
 23 24  1  0
 24 25  1  6
 25 26  1  0
 26 27  3  0
 24 28  1  0
 28 29  2  0
 28 30  1  0
 20 15  1  0
M  END
$$$$

     RDKit          2D

 32 33  0  0  0  0  0  0  0  0999 V2000
    0.7500   -6.4952    0.0000 N   0  0  0  0  0  0  0  0  0  0  0  0
    1.5000   -5.1962    0.0000 C   0  0  0  0  0  0  0  0  0  0  0  0
    0.7500   -3.8971    0.0000 C   0  0  0  0  0  0  0  0  0  0  0  0
    1.5000   -2.5981    0.0000 O   0  0  0  0  0  0  0  0  0  0  0  0
    0.7500   -1.2990    0.0000 C   0  0  0  0  0  0  0  0  0  0  0  0
    1.5000    0.0000    0.0000 C   0  0  0  0  0  0  0  0  0  0  0  0
    0.7500    1.2990    0.0000 C   0  0  0  0  0  0  0  0  0  0  0  0
   -0.7500    1.2990    0.0000 C   0  0  0  0  0  0  0  0  0  0  0  0
   -1.5000    0.0000    0.0000 C   0  0  0  0  0  0  0  0  0  0  0  0
   -0.7500   -1.2990    0.0000 C   0  0  0  0  0  0  0  0  0  0  0  0
    1.5000   -7.7942    0.0000 C   0  0  0  0  0  0  0  0  0  0  0  0
    0.7500   -9.0933    0.0000 C   0  0  0  0  0  0  0  0  0  0  0  0
   -0.7500   -9.0933    0.0000 O   0  0  0  0  0  0  0  0  0  0  0  0
    1.5000  -10.3923    0.0000 N   0  0  0  0  0  0  0  0  0  0  0  0
    0.7500  -11.6913    0.0000 C   0  0  0  0  0  0  0  0  0  0  0  0
    1.5000  -12.9904    0.0000 C   0  0  0  0  0  0  0  0  0  0  0  0
    0.7500  -14.2894    0.0000 C   0  0  0  0  0  0  0  0  0  0  0  0
   -0.7500  -14.2894    0.0000 C   0  0  0  0  0  0  0  0  0  0  0  0
   -1.5000  -15.5885    0.0000 C   0  0  0  0  0  0  0  0  0  0  0  0
   -0.7500  -16.8875    0.0000 C   0  0  0  0  0  0  0  0  0  0  0  0
    0.7500  -16.8875    0.0000 C   0  0  0  0  0  0  0  0  0  0  0  0
    1.5000  -15.5885    0.0000 C   0  0  0  0  0  0  0  0  0  0  0  0
   -0.7500  -11.6913    0.0000 C   0  0  0  0  0  0  0  0  0  0  0  0
   -1.5000  -10.3923    0.0000 O   0  0  0  0  0  0  0  0  0  0  0  0
   -1.5000  -12.9904    0.0000 N   0  0  0  0  0  0  0  0  0  0  0  0
   -3.0000  -12.9904    0.0000 C   0  0  0  0  0  0  0  0  0  0  0  0
   -3.7500  -14.2894    0.0000 C   0  0  0  0  0  0  0  0  0  0  0  0
   -5.2500  -14.2894    0.0000 C   0  0  0  0  0  0  0  0  0  0  0  0
   -6.7500  -14.2894    0.0000 C   0  0  0  0  0  0  0  0  0  0  0  0
   -3.7500  -11.6913    0.0000 C   0  0  0  0  0  0  0  0  0  0  0  0
   -3.0000  -10.3923    0.0000 O   0  0  0  0  0  0  0  0  0  0  0  0
   -5.2500  -11.6913    0.0000 O   0  0  0  0  0  0  0  0  0  0  0  0
  1  2  1  0
  2  3  1  0
  3  4  1  0
  4  5  1  0
  5  6  2  0
  6  7  1  0
  7  8  2  0
  8  9  1  0
  9 10  2  0
  1 11  1  0
 11 12  1  0
 12 13  2  0
 12 14  1  0
 14 15  1  0
 15 16  1  1
 16 17  1  0
 17 18  2  0
 18 19  1  0
 19 20  2  0
 20 21  1  0
 21 22  2  0
 15 23  1  0
 23 24  2  0
 23 25  1  0
 25 26  1  0
 26 27  1  1
 27 28  1  0
 28 29  3  0
 26 30  1  0
 30 31  2  0
 30 32  1  0
 22 17  1  0
 10  5  1  0
M  END
$$$$

     RDKit          2D

 35 36  0  0  0  0  0  0  0  0999 V2000
    1.5000   -5.1962    0.0000 N   0  0  0  0  0  0  0  0  0  0  0  0
    0.7500   -3.8971    0.0000 C   0  0  0  0  0  0  0  0  0  0  0  0
    1.5000   -2.5981    0.0000 C   0  0  0  0  0  0  0  0  0  0  0  0
    0.7500   -1.2990    0.0000 C   0  0  0  0  0  0  0  0  0  0  0  0
    1.5000    0.0000    0.0000 C   0  0  0  0  0  0  0  0  0  0  0  0
    0.7500    1.2990    0.0000 C   0  0  0  0  0  0  0  0  0  0  0  0
   -0.7500    1.2990    0.0000 C   0  0  0  0  0  0  0  0  0  0  0  0
   -1.5000    0.0000    0.0000 C   0  0  0  0  0  0  0  0  0  0  0  0
   -3.0000    0.0000    0.0000 O   0  0  0  0  0  0  0  0  0  0  0  0
   -3.7500   -1.2990    0.0000 C   0  0  0  0  0  0  0  0  0  0  0  0
   -0.7500   -1.2990    0.0000 C   0  0  0  0  0  0  0  0  0  0  0  0
   -1.5000    2.5981    0.0000 O   0  0  0  0  0  0  0  0  0  0  0  0
   -0.7500    3.8971    0.0000 C   0  0  0  0  0  0  0  0  0  0  0  0
    0.7500   -6.4952    0.0000 C   0  0  0  0  0  0  0  0  0  0  0  0
    1.5000   -7.7942    0.0000 C   0  0  0  0  0  0  0  0  0  0  0  0
    3.0000   -7.7942    0.0000 O   0  0  0  0  0  0  0  0  0  0  0  0
    0.7500   -9.0933    0.0000 N   0  0  0  0  0  0  0  0  0  0  0  0
    1.5000  -10.3923    0.0000 C   0  0  0  0  0  0  0  0  0  0  0  0
    0.7500  -11.6913    0.0000 C   0  0  0  0  0  0  0  0  0  0  0  0
    1.5000  -12.9904    0.0000 C   0  0  0  0  0  0  0  0  0  0  0  0
    0.7500  -14.2894    0.0000 C   0  0  0  0  0  0  0  0  0  0  0  0
    1.5000  -15.5885    0.0000 C   0  0  0  0  0  0  0  0  0  0  0  0
    3.0000  -15.5885    0.0000 C   0  0  0  0  0  0  0  0  0  0  0  0
    3.7500  -14.2894    0.0000 C   0  0  0  0  0  0  0  0  0  0  0  0
    3.0000  -12.9904    0.0000 C   0  0  0  0  0  0  0  0  0  0  0  0
    3.0000  -10.3923    0.0000 C   0  0  0  0  0  0  0  0  0  0  0  0
    3.7500   -9.0933    0.0000 O   0  0  0  0  0  0  0  0  0  0  0  0
    3.7500  -11.6913    0.0000 N   0  0  0  0  0  0  0  0  0  0  0  0
    5.2500  -11.6913    0.0000 C   0  0  0  0  0  0  0  0  0  0  0  0
    6.0000  -12.9904    0.0000 C   0  0  0  0  0  0  0  0  0  0  0  0
    7.5000  -12.9904    0.0000 C   0  0  0  0  0  0  0  0  0  0  0  0
    9.0000  -12.9904    0.0000 C   0  0  0  0  0  0  0  0  0  0  0  0
    6.0000  -10.3923    0.0000 C   0  0  0  0  0  0  0  0  0  0  0  0
    5.2500   -9.0933    0.0000 O   0  0  0  0  0  0  0  0  0  0  0  0
    7.5000  -10.3923    0.0000 O   0  0  0  0  0  0  0  0  0  0  0  0
  1  2  1  0
  2  3  1  0
  3  4  1  0
  4  5  2  0
  5  6  1  0
  6  7  2  0
  7  8  1  0
  8  9  1  0
  9 10  1  0
  8 11  2  0
  7 12  1  0
 12 13  1  0
  1 14  1  0
 14 15  1  0
 15 16  2  0
 15 17  1  0
 17 18  1  0
 18 19  1  6
 19 20  1  0
 20 21  2  0
 21 22  1  0
 22 23  2  0
 23 24  1  0
 24 25  2  0
 18 26  1  0
 26 27  2  0
 26 28  1  0
 28 29  1  0
 29 30  1  6
 30 31  1  0
 31 32  3  0
 29 33  1  0
 33 34  2  0
 33 35  1  0
 25 20  1  0
 11  4  1  0
M  END
$$$$

     RDKit          2D

 42 43  0  0  0  0  0  0  0  0999 V2000
   -8.8235   -2.3769    0.0000 N   0  0  0  0  0  0  0  0  0  0  0  0
   -8.3600   -0.9503    0.0000 C   0  0  0  0  0  0  0  0  0  0  0  0
   -9.3637    0.1644    0.0000 C   0  0  0  0  0  0  0  0  0  0  0  0
  -10.8309   -0.1475    0.0000 C   0  0  0  0  0  0  0  0  0  0  0  0
  -11.8346    0.9672    0.0000 C   0  0  0  0  0  0  0  0  0  0  0  0
  -11.2944   -1.5741    0.0000 C   0  0  0  0  0  0  0  0  0  0  0  0
   -6.8928   -0.6385    0.0000 C   0  0  0  0  0  0  0  0  0  0  0  0
   -6.4292    0.7881    0.0000 O   0  0  0  0  0  0  0  0  0  0  0  0
   -5.8891   -1.7532    0.0000 N   0  0  0  0  0  0  0  0  0  0  0  0
   -4.4218   -1.4413    0.0000 C   0  0  0  0  0  0  0  0  0  0  0  0
   -3.9583   -0.0147    0.0000 C   0  0  0  0  0  0  0  0  0  0  0  0
   -2.4911    0.2971    0.0000 C   0  0  0  0  0  0  0  0  0  0  0  0
   -2.0276    1.7237    0.0000 C   0  0  0  0  0  0  0  0  0  0  0  0
   -1.4874   -0.8176    0.0000 C   0  0  0  0  0  0  0  0  0  0  0  0
   -3.4182   -2.5560    0.0000 C   0  0  0  0  0  0  0  0  0  0  0  0
   -1.9509   -2.2442    0.0000 O   0  0  0  0  0  0  0  0  0  0  0  0
   -3.8817   -3.9826    0.0000 N   0  0  0  0  0  0  0  0  0  0  0  0
   -5.3083   -4.4462    0.0000 C   0  0  0  0  0  0  0  0  0  0  0  0
   -5.3083   -5.9462    0.0000 C   0  0  0  0  0  0  0  0  0  0  0  0
   -3.8817   -6.4097    0.0000 C   0  0  0  0  0  0  0  0  0  0  0  0
   -3.0000   -5.1962    0.0000 C   0  0  0  0  0  0  0  0  0  0  0  0
   -1.5000   -5.1962    0.0000 C   0  0  0  0  0  0  0  0  0  0  0  0
   -0.7500   -6.4952    0.0000 O   0  0  0  0  0  0  0  0  0  0  0  0
   -0.7500   -3.8971    0.0000 N   0  0  0  0  0  0  0  0  0  0  0  0
    0.7500   -3.8971    0.0000 C   0  0  0  0  0  0  0  0  0  0  0  0
    1.5000   -2.5981    0.0000 C   0  0  0  0  0  0  0  0  0  0  0  0
    0.7500   -1.2990    0.0000 C   0  0  0  0  0  0  0  0  0  0  0  0
    1.5000    0.0000    0.0000 C   0  0  0  0  0  0  0  0  0  0  0  0
    0.7500    1.2990    0.0000 C   0  0  0  0  0  0  0  0  0  0  0  0
   -0.7500    1.2990    0.0000 C   0  0  0  0  0  0  0  0  0  0  0  0
   -1.5000    0.0000    0.0000 C   0  0  0  0  0  0  0  0  0  0  0  0
   -0.7500   -1.2990    0.0000 C   0  0  0  0  0  0  0  0  0  0  0  0
    1.5000   -5.1962    0.0000 C   0  0  0  0  0  0  0  0  0  0  0  0
    3.0000   -5.1962    0.0000 O   0  0  0  0  0  0  0  0  0  0  0  0
    0.7500   -6.4952    0.0000 N   0  0  0  0  0  0  0  0  0  0  0  0
    1.5000   -7.7942    0.0000 C   0  0  0  0  0  0  0  0  0  0  0  0
    0.7500   -9.0933    0.0000 C   0  0  0  0  0  0  0  0  0  0  0  0
    1.5000  -10.3923    0.0000 C   0  0  0  0  0  0  0  0  0  0  0  0
    2.2500  -11.6913    0.0000 C   0  0  0  0  0  0  0  0  0  0  0  0
    3.0000   -7.7942    0.0000 C   0  0  0  0  0  0  0  0  0  0  0  0
    3.7500   -6.4952    0.0000 O   0  0  0  0  0  0  0  0  0  0  0  0
    3.7500   -9.0933    0.0000 O   0  0  0  0  0  0  0  0  0  0  0  0
  2  1  1  1
  2  3  1  0
  3  4  1  0
  4  5  1  0
  4  6  1  0
  2  7  1  0
  7  8  2  0
  7  9  1  0
  9 10  1  0
 10 11  1  1
 11 12  1  0
 12 13  1  0
 12 14  1  0
 10 15  1  0
 15 16  2  0
 15 17  1  0
 17 18  1  0
 18 19  1  0
 19 20  1  0
 20 21  1  0
 21 22  1  6
 22 23  2  0
 22 24  1  0
 24 25  1  0
 25 26  1  1
 26 27  1  0
 27 28  2  0
 28 29  1  0
 29 30  2  0
 30 31  1  0
 31 32  2  0
 25 33  1  0
 33 34  2  0
 33 35  1  0
 35 36  1  0
 36 37  1  6
 37 38  1  0
 38 39  3  0
 36 40  1  0
 40 41  2  0
 40 42  1  0
 32 27  1  0
 21 17  1  0
M  END
$$$$

     RDKit          2D

 42 43  0  0  0  0  0  0  0  0999 V2000
   -8.8235   -2.3769    0.0000 N   0  0  0  0  0  0  0  0  0  0  0  0
   -8.3600   -0.9503    0.0000 C   0  0  0  0  0  0  0  0  0  0  0  0
   -9.3637    0.1644    0.0000 C   0  0  0  0  0  0  0  0  0  0  0  0
  -10.8309   -0.1475    0.0000 C   0  0  0  0  0  0  0  0  0  0  0  0
  -11.8346    0.9672    0.0000 C   0  0  0  0  0  0  0  0  0  0  0  0
  -11.2944   -1.5741    0.0000 C   0  0  0  0  0  0  0  0  0  0  0  0
   -6.8928   -0.6385    0.0000 C   0  0  0  0  0  0  0  0  0  0  0  0
   -6.4292    0.7881    0.0000 O   0  0  0  0  0  0  0  0  0  0  0  0
   -5.8891   -1.7532    0.0000 N   0  0  0  0  0  0  0  0  0  0  0  0
   -4.4218   -1.4413    0.0000 C   0  0  0  0  0  0  0  0  0  0  0  0
   -3.9583   -0.0147    0.0000 C   0  0  0  0  0  0  0  0  0  0  0  0
   -2.4911    0.2971    0.0000 C   0  0  0  0  0  0  0  0  0  0  0  0
   -2.0276    1.7237    0.0000 C   0  0  0  0  0  0  0  0  0  0  0  0
   -1.4874   -0.8176    0.0000 C   0  0  0  0  0  0  0  0  0  0  0  0
   -3.4182   -2.5560    0.0000 C   0  0  0  0  0  0  0  0  0  0  0  0
   -1.9509   -2.2442    0.0000 O   0  0  0  0  0  0  0  0  0  0  0  0
   -3.8817   -3.9826    0.0000 N   0  0  0  0  0  0  0  0  0  0  0  0
   -5.3083   -4.4462    0.0000 C   0  0  0  0  0  0  0  0  0  0  0  0
   -5.3083   -5.9462    0.0000 C   0  0  0  0  0  0  0  0  0  0  0  0
   -3.8817   -6.4097    0.0000 C   0  0  0  0  0  0  0  0  0  0  0  0
   -3.0000   -5.1962    0.0000 C   0  0  0  0  0  0  0  0  0  0  0  0
   -1.5000   -5.1962    0.0000 C   0  0  0  0  0  0  0  0  0  0  0  0
   -0.7500   -6.4952    0.0000 O   0  0  0  0  0  0  0  0  0  0  0  0
   -0.7500   -3.8971    0.0000 N   0  0  0  0  0  0  0  0  0  0  0  0
    0.7500   -3.8971    0.0000 C   0  0  0  0  0  0  0  0  0  0  0  0
    1.5000   -2.5981    0.0000 C   0  0  0  0  0  0  0  0  0  0  0  0
    0.7500   -1.2990    0.0000 C   0  0  0  0  0  0  0  0  0  0  0  0
    1.5000    0.0000    0.0000 C   0  0  0  0  0  0  0  0  0  0  0  0
    0.7500    1.2990    0.0000 C   0  0  0  0  0  0  0  0  0  0  0  0
   -0.7500    1.2990    0.0000 C   0  0  0  0  0  0  0  0  0  0  0  0
   -1.5000    0.0000    0.0000 C   0  0  0  0  0  0  0  0  0  0  0  0
   -0.7500   -1.2990    0.0000 C   0  0  0  0  0  0  0  0  0  0  0  0
    1.5000   -5.1962    0.0000 C   0  0  0  0  0  0  0  0  0  0  0  0
    3.0000   -5.1962    0.0000 O   0  0  0  0  0  0  0  0  0  0  0  0
    0.7500   -6.4952    0.0000 N   0  0  0  0  0  0  0  0  0  0  0  0
    1.5000   -7.7942    0.0000 C   0  0  0  0  0  0  0  0  0  0  0  0
    0.7500   -9.0933    0.0000 C   0  0  0  0  0  0  0  0  0  0  0  0
    1.5000  -10.3923    0.0000 C   0  0  0  0  0  0  0  0  0  0  0  0
    2.2500  -11.6913    0.0000 C   0  0  0  0  0  0  0  0  0  0  0  0
    3.0000   -7.7942    0.0000 C   0  0  0  0  0  0  0  0  0  0  0  0
    3.7500   -6.4952    0.0000 O   0  0  0  0  0  0  0  0  0  0  0  0
    3.7500   -9.0933    0.0000 O   0  0  0  0  0  0  0  0  0  0  0  0
  2  1  1  6
  2  3  1  0
  3  4  1  0
  4  5  1  0
  4  6  1  0
  2  7  1  0
  7  8  2  0
  7  9  1  0
  9 10  1  0
 10 11  1  1
 11 12  1  0
 12 13  1  0
 12 14  1  0
 10 15  1  0
 15 16  2  0
 15 17  1  0
 17 18  1  0
 18 19  1  0
 19 20  1  0
 20 21  1  0
 21 22  1  6
 22 23  2  0
 22 24  1  0
 24 25  1  0
 25 26  1  1
 26 27  1  0
 27 28  2  0
 28 29  1  0
 29 30  2  0
 30 31  1  0
 31 32  2  0
 25 33  1  0
 33 34  2  0
 33 35  1  0
 35 36  1  0
 36 37  1  6
 37 38  1  0
 38 39  3  0
 36 40  1  0
 40 41  2  0
 40 42  1  0
 32 27  1  0
 21 17  1  0
M  END
$$$$

     RDKit          2D

 43 44  0  0  0  0  0  0  0  0999 V2000
   -8.8235   -2.3769    0.0000 N   0  0  0  0  0  0  0  0  0  0  0  0
  -10.2907   -2.6888    0.0000 C   0  0  0  0  0  0  0  0  0  0  0  0
   -8.3600   -0.9503    0.0000 C   0  0  0  0  0  0  0  0  0  0  0  0
   -9.3637    0.1644    0.0000 C   0  0  0  0  0  0  0  0  0  0  0  0
  -10.8309   -0.1475    0.0000 C   0  0  0  0  0  0  0  0  0  0  0  0
  -11.8346    0.9672    0.0000 C   0  0  0  0  0  0  0  0  0  0  0  0
  -11.2944   -1.5741    0.0000 C   0  0  0  0  0  0  0  0  0  0  0  0
   -6.8928   -0.6385    0.0000 C   0  0  0  0  0  0  0  0  0  0  0  0
   -6.4292    0.7881    0.0000 O   0  0  0  0  0  0  0  0  0  0  0  0
   -5.8891   -1.7532    0.0000 N   0  0  0  0  0  0  0  0  0  0  0  0
   -4.4218   -1.4413    0.0000 C   0  0  0  0  0  0  0  0  0  0  0  0
   -3.9583   -0.0147    0.0000 C   0  0  0  0  0  0  0  0  0  0  0  0
   -2.4911    0.2971    0.0000 C   0  0  0  0  0  0  0  0  0  0  0  0
   -2.0276    1.7237    0.0000 C   0  0  0  0  0  0  0  0  0  0  0  0
   -1.4874   -0.8176    0.0000 C   0  0  0  0  0  0  0  0  0  0  0  0
   -3.4182   -2.5560    0.0000 C   0  0  0  0  0  0  0  0  0  0  0  0
   -1.9509   -2.2442    0.0000 O   0  0  0  0  0  0  0  0  0  0  0  0
   -3.8817   -3.9826    0.0000 N   0  0  0  0  0  0  0  0  0  0  0  0
   -5.3083   -4.4462    0.0000 C   0  0  0  0  0  0  0  0  0  0  0  0
   -5.3083   -5.9462    0.0000 C   0  0  0  0  0  0  0  0  0  0  0  0
   -3.8817   -6.4097    0.0000 C   0  0  0  0  0  0  0  0  0  0  0  0
   -3.0000   -5.1962    0.0000 C   0  0  0  0  0  0  0  0  0  0  0  0
   -1.5000   -5.1962    0.0000 C   0  0  0  0  0  0  0  0  0  0  0  0
   -0.7500   -6.4952    0.0000 O   0  0  0  0  0  0  0  0  0  0  0  0
   -0.7500   -3.8971    0.0000 N   0  0  0  0  0  0  0  0  0  0  0  0
    0.7500   -3.8971    0.0000 C   0  0  0  0  0  0  0  0  0  0  0  0
    1.5000   -2.5981    0.0000 C   0  0  0  0  0  0  0  0  0  0  0  0
    0.7500   -1.2990    0.0000 C   0  0  0  0  0  0  0  0  0  0  0  0
    1.5000    0.0000    0.0000 C   0  0  0  0  0  0  0  0  0  0  0  0
    0.7500    1.2990    0.0000 C   0  0  0  0  0  0  0  0  0  0  0  0
   -0.7500    1.2990    0.0000 C   0  0  0  0  0  0  0  0  0  0  0  0
   -1.5000    0.0000    0.0000 C   0  0  0  0  0  0  0  0  0  0  0  0
   -0.7500   -1.2990    0.0000 C   0  0  0  0  0  0  0  0  0  0  0  0
    1.5000   -5.1962    0.0000 C   0  0  0  0  0  0  0  0  0  0  0  0
    3.0000   -5.1962    0.0000 O   0  0  0  0  0  0  0  0  0  0  0  0
    0.7500   -6.4952    0.0000 N   0  0  0  0  0  0  0  0  0  0  0  0
    1.5000   -7.7942    0.0000 C   0  0  0  0  0  0  0  0  0  0  0  0
    0.7500   -9.0933    0.0000 C   0  0  0  0  0  0  0  0  0  0  0  0
    1.5000  -10.3923    0.0000 C   0  0  0  0  0  0  0  0  0  0  0  0
    2.2500  -11.6913    0.0000 C   0  0  0  0  0  0  0  0  0  0  0  0
    3.0000   -7.7942    0.0000 C   0  0  0  0  0  0  0  0  0  0  0  0
    3.7500   -6.4952    0.0000 O   0  0  0  0  0  0  0  0  0  0  0  0
    3.7500   -9.0933    0.0000 O   0  0  0  0  0  0  0  0  0  0  0  0
  1  2  1  0
  1  3  1  0
  3  4  1  1
  4  5  1  0
  5  6  1  0
  5  7  1  0
  3  8  1  0
  8  9  2  0
  8 10  1  0
 10 11  1  0
 11 12  1  1
 12 13  1  0
 13 14  1  0
 13 15  1  0
 11 16  1  0
 16 17  2  0
 16 18  1  0
 18 19  1  0
 19 20  1  0
 20 21  1  0
 21 22  1  0
 22 23  1  6
 23 24  2  0
 23 25  1  0
 25 26  1  0
 26 27  1  1
 27 28  1  0
 28 29  2  0
 29 30  1  0
 30 31  2  0
 31 32  1  0
 32 33  2  0
 26 34  1  0
 34 35  2  0
 34 36  1  0
 36 37  1  0
 37 38  1  6
 38 39  1  0
 39 40  3  0
 37 41  1  0
 41 42  2  0
 41 43  1  0
 33 28  1  0
 22 18  1  0
M  END
$$$$

     RDKit          2D

 43 44  0  0  0  0  0  0  0  0999 V2000
   -8.8235   -2.3769    0.0000 N   0  0  0  0  0  0  0  0  0  0  0  0
  -10.2907   -2.6888    0.0000 C   0  0  0  0  0  0  0  0  0  0  0  0
   -8.3600   -0.9503    0.0000 C   0  0  0  0  0  0  0  0  0  0  0  0
   -9.3637    0.1644    0.0000 C   0  0  0  0  0  0  0  0  0  0  0  0
  -10.8309   -0.1475    0.0000 C   0  0  0  0  0  0  0  0  0  0  0  0
  -11.8346    0.9672    0.0000 C   0  0  0  0  0  0  0  0  0  0  0  0
  -11.2944   -1.5741    0.0000 C   0  0  0  0  0  0  0  0  0  0  0  0
   -6.8928   -0.6385    0.0000 C   0  0  0  0  0  0  0  0  0  0  0  0
   -6.4292    0.7881    0.0000 O   0  0  0  0  0  0  0  0  0  0  0  0
   -5.8891   -1.7532    0.0000 N   0  0  0  0  0  0  0  0  0  0  0  0
   -4.4218   -1.4413    0.0000 C   0  0  0  0  0  0  0  0  0  0  0  0
   -3.9583   -0.0147    0.0000 C   0  0  0  0  0  0  0  0  0  0  0  0
   -2.4911    0.2971    0.0000 C   0  0  0  0  0  0  0  0  0  0  0  0
   -2.0276    1.7237    0.0000 C   0  0  0  0  0  0  0  0  0  0  0  0
   -1.4874   -0.8176    0.0000 C   0  0  0  0  0  0  0  0  0  0  0  0
   -3.4182   -2.5560    0.0000 C   0  0  0  0  0  0  0  0  0  0  0  0
   -1.9509   -2.2442    0.0000 O   0  0  0  0  0  0  0  0  0  0  0  0
   -3.8817   -3.9826    0.0000 N   0  0  0  0  0  0  0  0  0  0  0  0
   -5.3083   -4.4462    0.0000 C   0  0  0  0  0  0  0  0  0  0  0  0
   -5.3083   -5.9462    0.0000 C   0  0  0  0  0  0  0  0  0  0  0  0
   -3.8817   -6.4097    0.0000 C   0  0  0  0  0  0  0  0  0  0  0  0
   -3.0000   -5.1962    0.0000 C   0  0  0  0  0  0  0  0  0  0  0  0
   -1.5000   -5.1962    0.0000 C   0  0  0  0  0  0  0  0  0  0  0  0
   -0.7500   -6.4952    0.0000 O   0  0  0  0  0  0  0  0  0  0  0  0
   -0.7500   -3.8971    0.0000 N   0  0  0  0  0  0  0  0  0  0  0  0
    0.7500   -3.8971    0.0000 C   0  0  0  0  0  0  0  0  0  0  0  0
    1.5000   -2.5981    0.0000 C   0  0  0  0  0  0  0  0  0  0  0  0
    0.7500   -1.2990    0.0000 C   0  0  0  0  0  0  0  0  0  0  0  0
    1.5000    0.0000    0.0000 C   0  0  0  0  0  0  0  0  0  0  0  0
    0.7500    1.2990    0.0000 C   0  0  0  0  0  0  0  0  0  0  0  0
   -0.7500    1.2990    0.0000 C   0  0  0  0  0  0  0  0  0  0  0  0
   -1.5000    0.0000    0.0000 C   0  0  0  0  0  0  0  0  0  0  0  0
   -0.7500   -1.2990    0.0000 C   0  0  0  0  0  0  0  0  0  0  0  0
    1.5000   -5.1962    0.0000 C   0  0  0  0  0  0  0  0  0  0  0  0
    3.0000   -5.1962    0.0000 O   0  0  0  0  0  0  0  0  0  0  0  0
    0.7500   -6.4952    0.0000 N   0  0  0  0  0  0  0  0  0  0  0  0
    1.5000   -7.7942    0.0000 C   0  0  0  0  0  0  0  0  0  0  0  0
    0.7500   -9.0933    0.0000 C   0  0  0  0  0  0  0  0  0  0  0  0
    1.5000  -10.3923    0.0000 C   0  0  0  0  0  0  0  0  0  0  0  0
    2.2500  -11.6913    0.0000 C   0  0  0  0  0  0  0  0  0  0  0  0
    3.0000   -7.7942    0.0000 C   0  0  0  0  0  0  0  0  0  0  0  0
    3.7500   -6.4952    0.0000 O   0  0  0  0  0  0  0  0  0  0  0  0
    3.7500   -9.0933    0.0000 O   0  0  0  0  0  0  0  0  0  0  0  0
  1  2  1  0
  1  3  1  0
  3  4  1  6
  4  5  1  0
  5  6  1  0
  5  7  1  0
  3  8  1  0
  8  9  2  0
  8 10  1  0
 10 11  1  0
 11 12  1  1
 12 13  1  0
 13 14  1  0
 13 15  1  0
 11 16  1  0
 16 17  2  0
 16 18  1  0
 18 19  1  0
 19 20  1  0
 20 21  1  0
 21 22  1  0
 22 23  1  6
 23 24  2  0
 23 25  1  0
 25 26  1  0
 26 27  1  1
 27 28  1  0
 28 29  2  0
 29 30  1  0
 30 31  2  0
 31 32  1  0
 32 33  2  0
 26 34  1  0
 34 35  2  0
 34 36  1  0
 36 37  1  0
 37 38  1  6
 38 39  1  0
 39 40  3  0
 37 41  1  0
 41 42  2  0
 41 43  1  0
 33 28  1  0
 22 18  1  0
M  END
$$$$

     RDKit          2D

 42 43  0  0  0  0  0  0  0  0999 V2000
   -8.8235   -2.3769    0.0000 N   0  0  0  0  0  0  0  0  0  0  0  0
   -8.3600   -0.9503    0.0000 C   0  0  0  0  0  0  0  0  0  0  0  0
   -9.3637    0.1644    0.0000 C   0  0  0  0  0  0  0  0  0  0  0  0
  -10.8309   -0.1475    0.0000 C   0  0  0  0  0  0  0  0  0  0  0  0
  -11.8346    0.9672    0.0000 C   0  0  0  0  0  0  0  0  0  0  0  0
  -11.2944   -1.5741    0.0000 C   0  0  0  0  0  0  0  0  0  0  0  0
   -6.8928   -0.6385    0.0000 C   0  0  0  0  0  0  0  0  0  0  0  0
   -6.4292    0.7881    0.0000 O   0  0  0  0  0  0  0  0  0  0  0  0
   -5.8891   -1.7532    0.0000 N   0  0  0  0  0  0  0  0  0  0  0  0
   -4.4218   -1.4413    0.0000 C   0  0  0  0  0  0  0  0  0  0  0  0
   -3.9583   -0.0147    0.0000 C   0  0  0  0  0  0  0  0  0  0  0  0
   -2.4911    0.2971    0.0000 C   0  0  0  0  0  0  0  0  0  0  0  0
   -2.0276    1.7237    0.0000 C   0  0  0  0  0  0  0  0  0  0  0  0
   -1.4874   -0.8176    0.0000 C   0  0  0  0  0  0  0  0  0  0  0  0
   -3.4182   -2.5560    0.0000 C   0  0  0  0  0  0  0  0  0  0  0  0
   -1.9509   -2.2442    0.0000 O   0  0  0  0  0  0  0  0  0  0  0  0
   -3.8817   -3.9826    0.0000 N   0  0  0  0  0  0  0  0  0  0  0  0
   -5.3083   -4.4462    0.0000 C   0  0  0  0  0  0  0  0  0  0  0  0
   -5.3083   -5.9462    0.0000 C   0  0  0  0  0  0  0  0  0  0  0  0
   -3.8817   -6.4097    0.0000 C   0  0  0  0  0  0  0  0  0  0  0  0
   -3.0000   -5.1962    0.0000 C   0  0  0  0  0  0  0  0  0  0  0  0
   -1.5000   -5.1962    0.0000 C   0  0  0  0  0  0  0  0  0  0  0  0
   -0.7500   -6.4952    0.0000 O   0  0  0  0  0  0  0  0  0  0  0  0
   -0.7500   -3.8971    0.0000 N   0  0  0  0  0  0  0  0  0  0  0  0
    0.7500   -3.8971    0.0000 C   0  0  0  0  0  0  0  0  0  0  0  0
    1.5000   -2.5981    0.0000 C   0  0  0  0  0  0  0  0  0  0  0  0
    0.7500   -1.2990    0.0000 C   0  0  0  0  0  0  0  0  0  0  0  0
    1.5000    0.0000    0.0000 C   0  0  0  0  0  0  0  0  0  0  0  0
    0.7500    1.2990    0.0000 C   0  0  0  0  0  0  0  0  0  0  0  0
   -0.7500    1.2990    0.0000 C   0  0  0  0  0  0  0  0  0  0  0  0
   -1.5000    0.0000    0.0000 C   0  0  0  0  0  0  0  0  0  0  0  0
   -0.7500   -1.2990    0.0000 C   0  0  0  0  0  0  0  0  0  0  0  0
    1.5000   -5.1962    0.0000 C   0  0  0  0  0  0  0  0  0  0  0  0
    3.0000   -5.1962    0.0000 O   0  0  0  0  0  0  0  0  0  0  0  0
    0.7500   -6.4952    0.0000 N   0  0  0  0  0  0  0  0  0  0  0  0
    1.5000   -7.7942    0.0000 C   0  0  0  0  0  0  0  0  0  0  0  0
    0.7500   -9.0933    0.0000 C   0  0  0  0  0  0  0  0  0  0  0  0
    1.5000  -10.3923    0.0000 C   0  0  0  0  0  0  0  0  0  0  0  0
    2.2500  -11.6913    0.0000 C   0  0  0  0  0  0  0  0  0  0  0  0
    3.0000   -7.7942    0.0000 C   0  0  0  0  0  0  0  0  0  0  0  0
    3.7500   -6.4952    0.0000 O   0  0  0  0  0  0  0  0  0  0  0  0
    3.7500   -9.0933    0.0000 O   0  0  0  0  0  0  0  0  0  0  0  0
  2  1  1  1
  2  3  1  0
  3  4  1  0
  4  5  1  0
  4  6  1  0
  2  7  1  0
  7  8  2  0
  7  9  1  0
  9 10  1  0
 10 11  1  6
 11 12  1  0
 12 13  1  0
 12 14  1  0
 10 15  1  0
 15 16  2  0
 15 17  1  0
 17 18  1  0
 18 19  1  0
 19 20  1  0
 20 21  1  0
 21 22  1  6
 22 23  2  0
 22 24  1  0
 24 25  1  0
 25 26  1  1
 26 27  1  0
 27 28  2  0
 28 29  1  0
 29 30  2  0
 30 31  1  0
 31 32  2  0
 25 33  1  0
 33 34  2  0
 33 35  1  0
 35 36  1  0
 36 37  1  6
 37 38  1  0
 38 39  3  0
 36 40  1  0
 40 41  2  0
 40 42  1  0
 32 27  1  0
 21 17  1  0
M  END
$$$$

     RDKit          2D

 42 43  0  0  0  0  0  0  0  0999 V2000
   -8.8235   -2.3769    0.0000 N   0  0  0  0  0  0  0  0  0  0  0  0
   -8.3600   -0.9503    0.0000 C   0  0  0  0  0  0  0  0  0  0  0  0
   -9.3637    0.1644    0.0000 C   0  0  0  0  0  0  0  0  0  0  0  0
  -10.8309   -0.1475    0.0000 C   0  0  0  0  0  0  0  0  0  0  0  0
  -11.8346    0.9672    0.0000 C   0  0  0  0  0  0  0  0  0  0  0  0
  -11.2944   -1.5741    0.0000 C   0  0  0  0  0  0  0  0  0  0  0  0
   -6.8928   -0.6385    0.0000 C   0  0  0  0  0  0  0  0  0  0  0  0
   -6.4292    0.7881    0.0000 O   0  0  0  0  0  0  0  0  0  0  0  0
   -5.8891   -1.7532    0.0000 N   0  0  0  0  0  0  0  0  0  0  0  0
   -4.4218   -1.4413    0.0000 C   0  0  0  0  0  0  0  0  0  0  0  0
   -3.9583   -0.0147    0.0000 C   0  0  0  0  0  0  0  0  0  0  0  0
   -2.4911    0.2971    0.0000 C   0  0  0  0  0  0  0  0  0  0  0  0
   -2.0276    1.7237    0.0000 C   0  0  0  0  0  0  0  0  0  0  0  0
   -1.4874   -0.8176    0.0000 C   0  0  0  0  0  0  0  0  0  0  0  0
   -3.4182   -2.5560    0.0000 C   0  0  0  0  0  0  0  0  0  0  0  0
   -1.9509   -2.2442    0.0000 O   0  0  0  0  0  0  0  0  0  0  0  0
   -3.8817   -3.9826    0.0000 N   0  0  0  0  0  0  0  0  0  0  0  0
   -5.3083   -4.4462    0.0000 C   0  0  0  0  0  0  0  0  0  0  0  0
   -5.3083   -5.9462    0.0000 C   0  0  0  0  0  0  0  0  0  0  0  0
   -3.8817   -6.4097    0.0000 C   0  0  0  0  0  0  0  0  0  0  0  0
   -3.0000   -5.1962    0.0000 C   0  0  0  0  0  0  0  0  0  0  0  0
   -1.5000   -5.1962    0.0000 C   0  0  0  0  0  0  0  0  0  0  0  0
   -0.7500   -6.4952    0.0000 O   0  0  0  0  0  0  0  0  0  0  0  0
   -0.7500   -3.8971    0.0000 N   0  0  0  0  0  0  0  0  0  0  0  0
    0.7500   -3.8971    0.0000 C   0  0  0  0  0  0  0  0  0  0  0  0
    1.5000   -2.5981    0.0000 C   0  0  0  0  0  0  0  0  0  0  0  0
    0.7500   -1.2990    0.0000 C   0  0  0  0  0  0  0  0  0  0  0  0
    1.5000    0.0000    0.0000 C   0  0  0  0  0  0  0  0  0  0  0  0
    0.7500    1.2990    0.0000 C   0  0  0  0  0  0  0  0  0  0  0  0
   -0.7500    1.2990    0.0000 C   0  0  0  0  0  0  0  0  0  0  0  0
   -1.5000    0.0000    0.0000 C   0  0  0  0  0  0  0  0  0  0  0  0
   -0.7500   -1.2990    0.0000 C   0  0  0  0  0  0  0  0  0  0  0  0
    1.5000   -5.1962    0.0000 C   0  0  0  0  0  0  0  0  0  0  0  0
    3.0000   -5.1962    0.0000 O   0  0  0  0  0  0  0  0  0  0  0  0
    0.7500   -6.4952    0.0000 N   0  0  0  0  0  0  0  0  0  0  0  0
    1.5000   -7.7942    0.0000 C   0  0  0  0  0  0  0  0  0  0  0  0
    0.7500   -9.0933    0.0000 C   0  0  0  0  0  0  0  0  0  0  0  0
    1.5000  -10.3923    0.0000 C   0  0  0  0  0  0  0  0  0  0  0  0
    2.2500  -11.6913    0.0000 C   0  0  0  0  0  0  0  0  0  0  0  0
    3.0000   -7.7942    0.0000 C   0  0  0  0  0  0  0  0  0  0  0  0
    3.7500   -6.4952    0.0000 O   0  0  0  0  0  0  0  0  0  0  0  0
    3.7500   -9.0933    0.0000 O   0  0  0  0  0  0  0  0  0  0  0  0
  2  1  1  6
  2  3  1  0
  3  4  1  0
  4  5  1  0
  4  6  1  0
  2  7  1  0
  7  8  2  0
  7  9  1  0
  9 10  1  0
 10 11  1  6
 11 12  1  0
 12 13  1  0
 12 14  1  0
 10 15  1  0
 15 16  2  0
 15 17  1  0
 17 18  1  0
 18 19  1  0
 19 20  1  0
 20 21  1  0
 21 22  1  6
 22 23  2  0
 22 24  1  0
 24 25  1  0
 25 26  1  1
 26 27  1  0
 27 28  2  0
 28 29  1  0
 29 30  2  0
 30 31  1  0
 31 32  2  0
 25 33  1  0
 33 34  2  0
 33 35  1  0
 35 36  1  0
 36 37  1  6
 37 38  1  0
 38 39  3  0
 36 40  1  0
 40 41  2  0
 40 42  1  0
 32 27  1  0
 21 17  1  0
M  END
$$$$

     RDKit          2D

 43 44  0  0  0  0  0  0  0  0999 V2000
   -8.8235   -2.3769    0.0000 N   0  0  0  0  0  0  0  0  0  0  0  0
  -10.2907   -2.6888    0.0000 C   0  0  0  0  0  0  0  0  0  0  0  0
   -8.3600   -0.9503    0.0000 C   0  0  0  0  0  0  0  0  0  0  0  0
   -9.3637    0.1644    0.0000 C   0  0  0  0  0  0  0  0  0  0  0  0
  -10.8309   -0.1475    0.0000 C   0  0  0  0  0  0  0  0  0  0  0  0
  -11.8346    0.9672    0.0000 C   0  0  0  0  0  0  0  0  0  0  0  0
  -11.2944   -1.5741    0.0000 C   0  0  0  0  0  0  0  0  0  0  0  0
   -6.8928   -0.6385    0.0000 C   0  0  0  0  0  0  0  0  0  0  0  0
   -6.4292    0.7881    0.0000 O   0  0  0  0  0  0  0  0  0  0  0  0
   -5.8891   -1.7532    0.0000 N   0  0  0  0  0  0  0  0  0  0  0  0
   -4.4218   -1.4413    0.0000 C   0  0  0  0  0  0  0  0  0  0  0  0
   -3.9583   -0.0147    0.0000 C   0  0  0  0  0  0  0  0  0  0  0  0
   -2.4911    0.2971    0.0000 C   0  0  0  0  0  0  0  0  0  0  0  0
   -2.0276    1.7237    0.0000 C   0  0  0  0  0  0  0  0  0  0  0  0
   -1.4874   -0.8176    0.0000 C   0  0  0  0  0  0  0  0  0  0  0  0
   -3.4182   -2.5560    0.0000 C   0  0  0  0  0  0  0  0  0  0  0  0
   -1.9509   -2.2442    0.0000 O   0  0  0  0  0  0  0  0  0  0  0  0
   -3.8817   -3.9826    0.0000 N   0  0  0  0  0  0  0  0  0  0  0  0
   -5.3083   -4.4462    0.0000 C   0  0  0  0  0  0  0  0  0  0  0  0
   -5.3083   -5.9462    0.0000 C   0  0  0  0  0  0  0  0  0  0  0  0
   -3.8817   -6.4097    0.0000 C   0  0  0  0  0  0  0  0  0  0  0  0
   -3.0000   -5.1962    0.0000 C   0  0  0  0  0  0  0  0  0  0  0  0
   -1.5000   -5.1962    0.0000 C   0  0  0  0  0  0  0  0  0  0  0  0
   -0.7500   -6.4952    0.0000 O   0  0  0  0  0  0  0  0  0  0  0  0
   -0.7500   -3.8971    0.0000 N   0  0  0  0  0  0  0  0  0  0  0  0
    0.7500   -3.8971    0.0000 C   0  0  0  0  0  0  0  0  0  0  0  0
    1.5000   -2.5981    0.0000 C   0  0  0  0  0  0  0  0  0  0  0  0
    0.7500   -1.2990    0.0000 C   0  0  0  0  0  0  0  0  0  0  0  0
    1.5000    0.0000    0.0000 C   0  0  0  0  0  0  0  0  0  0  0  0
    0.7500    1.2990    0.0000 C   0  0  0  0  0  0  0  0  0  0  0  0
   -0.7500    1.2990    0.0000 C   0  0  0  0  0  0  0  0  0  0  0  0
   -1.5000    0.0000    0.0000 C   0  0  0  0  0  0  0  0  0  0  0  0
   -0.7500   -1.2990    0.0000 C   0  0  0  0  0  0  0  0  0  0  0  0
    1.5000   -5.1962    0.0000 C   0  0  0  0  0  0  0  0  0  0  0  0
    3.0000   -5.1962    0.0000 O   0  0  0  0  0  0  0  0  0  0  0  0
    0.7500   -6.4952    0.0000 N   0  0  0  0  0  0  0  0  0  0  0  0
    1.5000   -7.7942    0.0000 C   0  0  0  0  0  0  0  0  0  0  0  0
    0.7500   -9.0933    0.0000 C   0  0  0  0  0  0  0  0  0  0  0  0
    1.5000  -10.3923    0.0000 C   0  0  0  0  0  0  0  0  0  0  0  0
    2.2500  -11.6913    0.0000 C   0  0  0  0  0  0  0  0  0  0  0  0
    3.0000   -7.7942    0.0000 C   0  0  0  0  0  0  0  0  0  0  0  0
    3.7500   -6.4952    0.0000 O   0  0  0  0  0  0  0  0  0  0  0  0
    3.7500   -9.0933    0.0000 O   0  0  0  0  0  0  0  0  0  0  0  0
  1  2  1  0
  1  3  1  0
  3  4  1  1
  4  5  1  0
  5  6  1  0
  5  7  1  0
  3  8  1  0
  8  9  2  0
  8 10  1  0
 10 11  1  0
 11 12  1  6
 12 13  1  0
 13 14  1  0
 13 15  1  0
 11 16  1  0
 16 17  2  0
 16 18  1  0
 18 19  1  0
 19 20  1  0
 20 21  1  0
 21 22  1  0
 22 23  1  6
 23 24  2  0
 23 25  1  0
 25 26  1  0
 26 27  1  1
 27 28  1  0
 28 29  2  0
 29 30  1  0
 30 31  2  0
 31 32  1  0
 32 33  2  0
 26 34  1  0
 34 35  2  0
 34 36  1  0
 36 37  1  0
 37 38  1  6
 38 39  1  0
 39 40  3  0
 37 41  1  0
 41 42  2  0
 41 43  1  0
 33 28  1  0
 22 18  1  0
M  END
$$$$

     RDKit          2D

 43 44  0  0  0  0  0  0  0  0999 V2000
   -8.8235   -2.3769    0.0000 N   0  0  0  0  0  0  0  0  0  0  0  0
  -10.2907   -2.6888    0.0000 C   0  0  0  0  0  0  0  0  0  0  0  0
   -8.3600   -0.9503    0.0000 C   0  0  0  0  0  0  0  0  0  0  0  0
   -9.3637    0.1644    0.0000 C   0  0  0  0  0  0  0  0  0  0  0  0
  -10.8309   -0.1475    0.0000 C   0  0  0  0  0  0  0  0  0  0  0  0
  -11.8346    0.9672    0.0000 C   0  0  0  0  0  0  0  0  0  0  0  0
  -11.2944   -1.5741    0.0000 C   0  0  0  0  0  0  0  0  0  0  0  0
   -6.8928   -0.6385    0.0000 C   0  0  0  0  0  0  0  0  0  0  0  0
   -6.4292    0.7881    0.0000 O   0  0  0  0  0  0  0  0  0  0  0  0
   -5.8891   -1.7532    0.0000 N   0  0  0  0  0  0  0  0  0  0  0  0
   -4.4218   -1.4413    0.0000 C   0  0  0  0  0  0  0  0  0  0  0  0
   -3.9583   -0.0147    0.0000 C   0  0  0  0  0  0  0  0  0  0  0  0
   -2.4911    0.2971    0.0000 C   0  0  0  0  0  0  0  0  0  0  0  0
   -2.0276    1.7237    0.0000 C   0  0  0  0  0  0  0  0  0  0  0  0
   -1.4874   -0.8176    0.0000 C   0  0  0  0  0  0  0  0  0  0  0  0
   -3.4182   -2.5560    0.0000 C   0  0  0  0  0  0  0  0  0  0  0  0
   -1.9509   -2.2442    0.0000 O   0  0  0  0  0  0  0  0  0  0  0  0
   -3.8817   -3.9826    0.0000 N   0  0  0  0  0  0  0  0  0  0  0  0
   -5.3083   -4.4462    0.0000 C   0  0  0  0  0  0  0  0  0  0  0  0
   -5.3083   -5.9462    0.0000 C   0  0  0  0  0  0  0  0  0  0  0  0
   -3.8817   -6.4097    0.0000 C   0  0  0  0  0  0  0  0  0  0  0  0
   -3.0000   -5.1962    0.0000 C   0  0  0  0  0  0  0  0  0  0  0  0
   -1.5000   -5.1962    0.0000 C   0  0  0  0  0  0  0  0  0  0  0  0
   -0.7500   -6.4952    0.0000 O   0  0  0  0  0  0  0  0  0  0  0  0
   -0.7500   -3.8971    0.0000 N   0  0  0  0  0  0  0  0  0  0  0  0
    0.7500   -3.8971    0.0000 C   0  0  0  0  0  0  0  0  0  0  0  0
    1.5000   -2.5981    0.0000 C   0  0  0  0  0  0  0  0  0  0  0  0
    0.7500   -1.2990    0.0000 C   0  0  0  0  0  0  0  0  0  0  0  0
    1.5000    0.0000    0.0000 C   0  0  0  0  0  0  0  0  0  0  0  0
    0.7500    1.2990    0.0000 C   0  0  0  0  0  0  0  0  0  0  0  0
   -0.7500    1.2990    0.0000 C   0  0  0  0  0  0  0  0  0  0  0  0
   -1.5000    0.0000    0.0000 C   0  0  0  0  0  0  0  0  0  0  0  0
   -0.7500   -1.2990    0.0000 C   0  0  0  0  0  0  0  0  0  0  0  0
    1.5000   -5.1962    0.0000 C   0  0  0  0  0  0  0  0  0  0  0  0
    3.0000   -5.1962    0.0000 O   0  0  0  0  0  0  0  0  0  0  0  0
    0.7500   -6.4952    0.0000 N   0  0  0  0  0  0  0  0  0  0  0  0
    1.5000   -7.7942    0.0000 C   0  0  0  0  0  0  0  0  0  0  0  0
    0.7500   -9.0933    0.0000 C   0  0  0  0  0  0  0  0  0  0  0  0
    1.5000  -10.3923    0.0000 C   0  0  0  0  0  0  0  0  0  0  0  0
    2.2500  -11.6913    0.0000 C   0  0  0  0  0  0  0  0  0  0  0  0
    3.0000   -7.7942    0.0000 C   0  0  0  0  0  0  0  0  0  0  0  0
    3.7500   -6.4952    0.0000 O   0  0  0  0  0  0  0  0  0  0  0  0
    3.7500   -9.0933    0.0000 O   0  0  0  0  0  0  0  0  0  0  0  0
  1  2  1  0
  1  3  1  0
  3  4  1  6
  4  5  1  0
  5  6  1  0
  5  7  1  0
  3  8  1  0
  8  9  2  0
  8 10  1  0
 10 11  1  0
 11 12  1  6
 12 13  1  0
 13 14  1  0
 13 15  1  0
 11 16  1  0
 16 17  2  0
 16 18  1  0
 18 19  1  0
 19 20  1  0
 20 21  1  0
 21 22  1  0
 22 23  1  6
 23 24  2  0
 23 25  1  0
 25 26  1  0
 26 27  1  1
 27 28  1  0
 28 29  2  0
 29 30  1  0
 30 31  2  0
 31 32  1  0
 32 33  2  0
 26 34  1  0
 34 35  2  0
 34 36  1  0
 36 37  1  0
 37 38  1  6
 38 39  1  0
 39 40  3  0
 37 41  1  0
 41 42  2  0
 41 43  1  0
 33 28  1  0
 22 18  1  0
M  END
$$$$

     RDKit          2D

 43 44  0  0  0  0  0  0  0  0999 V2000
   -3.0313    2.8384    0.0000 N   0  0  0  0  0  0  0  0  0  0  0  0
   -2.0276    1.7237    0.0000 C   0  0  0  0  0  0  0  0  0  0  0  0
   -0.5604    2.0356    0.0000 C   0  0  0  0  0  0  0  0  0  0  0  0
   -0.0968    3.4622    0.0000 C   0  0  0  0  0  0  0  0  0  0  0  0
    1.3704    3.7740    0.0000 C   0  0  0  0  0  0  0  0  0  0  0  0
   -1.1005    4.5769    0.0000 C   0  0  0  0  0  0  0  0  0  0  0  0
   -2.4911    0.2971    0.0000 C   0  0  0  0  0  0  0  0  0  0  0  0
   -1.4874   -0.8176    0.0000 O   0  0  0  0  0  0  0  0  0  0  0  0
   -3.9583   -0.0147    0.0000 N   0  0  0  0  0  0  0  0  0  0  0  0
   -4.9620    1.1000    0.0000 C   0  0  0  0  0  0  0  0  0  0  0  0
   -4.4218   -1.4413    0.0000 C   0  0  0  0  0  0  0  0  0  0  0  0
   -5.8891   -1.7532    0.0000 C   0  0  0  0  0  0  0  0  0  0  0  0
   -6.8928   -0.6385    0.0000 C   0  0  0  0  0  0  0  0  0  0  0  0
   -8.3600   -0.9503    0.0000 C   0  0  0  0  0  0  0  0  0  0  0  0
   -6.4292    0.7881    0.0000 C   0  0  0  0  0  0  0  0  0  0  0  0
   -3.4182   -2.5560    0.0000 C   0  0  0  0  0  0  0  0  0  0  0  0
   -1.9509   -2.2442    0.0000 O   0  0  0  0  0  0  0  0  0  0  0  0
   -3.8817   -3.9826    0.0000 N   0  0  0  0  0  0  0  0  0  0  0  0
   -5.3083   -4.4462    0.0000 C   0  0  0  0  0  0  0  0  0  0  0  0
   -5.3083   -5.9462    0.0000 C   0  0  0  0  0  0  0  0  0  0  0  0
   -3.8817   -6.4097    0.0000 C   0  0  0  0  0  0  0  0  0  0  0  0
   -3.0000   -5.1962    0.0000 C   0  0  0  0  0  0  0  0  0  0  0  0
   -1.5000   -5.1962    0.0000 C   0  0  0  0  0  0  0  0  0  0  0  0
   -0.7500   -6.4952    0.0000 O   0  0  0  0  0  0  0  0  0  0  0  0
   -0.7500   -3.8971    0.0000 N   0  0  0  0  0  0  0  0  0  0  0  0
    0.7500   -3.8971    0.0000 C   0  0  0  0  0  0  0  0  0  0  0  0
    1.5000   -2.5981    0.0000 C   0  0  0  0  0  0  0  0  0  0  0  0
    0.7500   -1.2990    0.0000 C   0  0  0  0  0  0  0  0  0  0  0  0
    1.5000    0.0000    0.0000 C   0  0  0  0  0  0  0  0  0  0  0  0
    0.7500    1.2990    0.0000 C   0  0  0  0  0  0  0  0  0  0  0  0
   -0.7500    1.2990    0.0000 C   0  0  0  0  0  0  0  0  0  0  0  0
   -1.5000    0.0000    0.0000 C   0  0  0  0  0  0  0  0  0  0  0  0
   -0.7500   -1.2990    0.0000 C   0  0  0  0  0  0  0  0  0  0  0  0
    1.5000   -5.1962    0.0000 C   0  0  0  0  0  0  0  0  0  0  0  0
    3.0000   -5.1962    0.0000 O   0  0  0  0  0  0  0  0  0  0  0  0
    0.7500   -6.4952    0.0000 N   0  0  0  0  0  0  0  0  0  0  0  0
    1.5000   -7.7942    0.0000 C   0  0  0  0  0  0  0  0  0  0  0  0
    0.7500   -9.0933    0.0000 C   0  0  0  0  0  0  0  0  0  0  0  0
    1.5000  -10.3923    0.0000 C   0  0  0  0  0  0  0  0  0  0  0  0
    2.2500  -11.6913    0.0000 C   0  0  0  0  0  0  0  0  0  0  0  0
    3.0000   -7.7942    0.0000 C   0  0  0  0  0  0  0  0  0  0  0  0
    3.7500   -6.4952    0.0000 O   0  0  0  0  0  0  0  0  0  0  0  0
    3.7500   -9.0933    0.0000 O   0  0  0  0  0  0  0  0  0  0  0  0
  2  1  1  1
  2  3  1  0
  3  4  1  0
  4  5  1  0
  4  6  1  0
  2  7  1  0
  7  8  2  0
  7  9  1  0
  9 10  1  0
  9 11  1  0
 11 12  1  6
 12 13  1  0
 13 14  1  0
 13 15  1  0
 11 16  1  0
 16 17  2  0
 16 18  1  0
 18 19  1  0
 19 20  1  0
 20 21  1  0
 21 22  1  0
 22 23  1  6
 23 24  2  0
 23 25  1  0
 25 26  1  0
 26 27  1  1
 27 28  1  0
 28 29  2  0
 29 30  1  0
 30 31  2  0
 31 32  1  0
 32 33  2  0
 26 34  1  0
 34 35  2  0
 34 36  1  0
 36 37  1  0
 37 38  1  6
 38 39  1  0
 39 40  3  0
 37 41  1  0
 41 42  2  0
 41 43  1  0
 33 28  1  0
 22 18  1  0
M  END
$$$$

     RDKit          2D

 43 44  0  0  0  0  0  0  0  0999 V2000
   -3.0313    2.8384    0.0000 N   0  0  0  0  0  0  0  0  0  0  0  0
   -2.0276    1.7237    0.0000 C   0  0  0  0  0  0  0  0  0  0  0  0
   -0.5604    2.0356    0.0000 C   0  0  0  0  0  0  0  0  0  0  0  0
   -0.0968    3.4622    0.0000 C   0  0  0  0  0  0  0  0  0  0  0  0
    1.3704    3.7740    0.0000 C   0  0  0  0  0  0  0  0  0  0  0  0
   -1.1005    4.5769    0.0000 C   0  0  0  0  0  0  0  0  0  0  0  0
   -2.4911    0.2971    0.0000 C   0  0  0  0  0  0  0  0  0  0  0  0
   -1.4874   -0.8176    0.0000 O   0  0  0  0  0  0  0  0  0  0  0  0
   -3.9583   -0.0147    0.0000 N   0  0  0  0  0  0  0  0  0  0  0  0
   -4.9620    1.1000    0.0000 C   0  0  0  0  0  0  0  0  0  0  0  0
   -4.4218   -1.4413    0.0000 C   0  0  0  0  0  0  0  0  0  0  0  0
   -5.8891   -1.7532    0.0000 C   0  0  0  0  0  0  0  0  0  0  0  0
   -6.8928   -0.6385    0.0000 C   0  0  0  0  0  0  0  0  0  0  0  0
   -8.3600   -0.9503    0.0000 C   0  0  0  0  0  0  0  0  0  0  0  0
   -6.4292    0.7881    0.0000 C   0  0  0  0  0  0  0  0  0  0  0  0
   -3.4182   -2.5560    0.0000 C   0  0  0  0  0  0  0  0  0  0  0  0
   -1.9509   -2.2442    0.0000 O   0  0  0  0  0  0  0  0  0  0  0  0
   -3.8817   -3.9826    0.0000 N   0  0  0  0  0  0  0  0  0  0  0  0
   -5.3083   -4.4462    0.0000 C   0  0  0  0  0  0  0  0  0  0  0  0
   -5.3083   -5.9462    0.0000 C   0  0  0  0  0  0  0  0  0  0  0  0
   -3.8817   -6.4097    0.0000 C   0  0  0  0  0  0  0  0  0  0  0  0
   -3.0000   -5.1962    0.0000 C   0  0  0  0  0  0  0  0  0  0  0  0
   -1.5000   -5.1962    0.0000 C   0  0  0  0  0  0  0  0  0  0  0  0
   -0.7500   -6.4952    0.0000 O   0  0  0  0  0  0  0  0  0  0  0  0
   -0.7500   -3.8971    0.0000 N   0  0  0  0  0  0  0  0  0  0  0  0
    0.7500   -3.8971    0.0000 C   0  0  0  0  0  0  0  0  0  0  0  0
    1.5000   -2.5981    0.0000 C   0  0  0  0  0  0  0  0  0  0  0  0
    0.7500   -1.2990    0.0000 C   0  0  0  0  0  0  0  0  0  0  0  0
    1.5000    0.0000    0.0000 C   0  0  0  0  0  0  0  0  0  0  0  0
    0.7500    1.2990    0.0000 C   0  0  0  0  0  0  0  0  0  0  0  0
   -0.7500    1.2990    0.0000 C   0  0  0  0  0  0  0  0  0  0  0  0
   -1.5000    0.0000    0.0000 C   0  0  0  0  0  0  0  0  0  0  0  0
   -0.7500   -1.2990    0.0000 C   0  0  0  0  0  0  0  0  0  0  0  0
    1.5000   -5.1962    0.0000 C   0  0  0  0  0  0  0  0  0  0  0  0
    3.0000   -5.1962    0.0000 O   0  0  0  0  0  0  0  0  0  0  0  0
    0.7500   -6.4952    0.0000 N   0  0  0  0  0  0  0  0  0  0  0  0
    1.5000   -7.7942    0.0000 C   0  0  0  0  0  0  0  0  0  0  0  0
    0.7500   -9.0933    0.0000 C   0  0  0  0  0  0  0  0  0  0  0  0
    1.5000  -10.3923    0.0000 C   0  0  0  0  0  0  0  0  0  0  0  0
    2.2500  -11.6913    0.0000 C   0  0  0  0  0  0  0  0  0  0  0  0
    3.0000   -7.7942    0.0000 C   0  0  0  0  0  0  0  0  0  0  0  0
    3.7500   -6.4952    0.0000 O   0  0  0  0  0  0  0  0  0  0  0  0
    3.7500   -9.0933    0.0000 O   0  0  0  0  0  0  0  0  0  0  0  0
  2  1  1  6
  2  3  1  0
  3  4  1  0
  4  5  1  0
  4  6  1  0
  2  7  1  0
  7  8  2  0
  7  9  1  0
  9 10  1  0
  9 11  1  0
 11 12  1  6
 12 13  1  0
 13 14  1  0
 13 15  1  0
 11 16  1  0
 16 17  2  0
 16 18  1  0
 18 19  1  0
 19 20  1  0
 20 21  1  0
 21 22  1  0
 22 23  1  6
 23 24  2  0
 23 25  1  0
 25 26  1  0
 26 27  1  1
 27 28  1  0
 28 29  2  0
 29 30  1  0
 30 31  2  0
 31 32  1  0
 32 33  2  0
 26 34  1  0
 34 35  2  0
 34 36  1  0
 36 37  1  0
 37 38  1  6
 38 39  1  0
 39 40  3  0
 37 41  1  0
 41 42  2  0
 41 43  1  0
 33 28  1  0
 22 18  1  0
M  END
$$$$

     RDKit          2D

 27 27  0  0  0  0  0  0  0  0999 V2000
    1.5000   -5.1962    0.0000 N   0  0  0  0  0  0  0  0  0  0  0  0
    3.0000   -5.1962    0.0000 C   0  0  0  0  0  0  0  0  0  0  0  0
    3.7500   -6.4952    0.0000 C   0  0  0  0  0  0  0  0  0  0  0  0
    3.0000   -7.7942    0.0000 C   0  0  0  0  0  0  0  0  0  0  0  0
    3.7500   -9.0933    0.0000 C   0  0  0  0  0  0  0  0  0  0  0  0
    1.5000   -7.7942    0.0000 C   0  0  0  0  0  0  0  0  0  0  0  0
    3.7500   -3.8971    0.0000 C   0  0  0  0  0  0  0  0  0  0  0  0
    5.2500   -3.8971    0.0000 O   0  0  0  0  0  0  0  0  0  0  0  0
    3.0000   -2.5981    0.0000 N   0  0  0  0  0  0  0  0  0  0  0  0
    3.7500   -1.2990    0.0000 C   0  0  0  0  0  0  0  0  0  0  0  0
    3.0000    0.0000    0.0000 C   0  0  0  0  0  0  0  0  0  0  0  0
    1.5000    0.0000    0.0000 C   0  0  0  0  0  0  0  0  0  0  0  0
    0.7500   -1.2990    0.0000 C   0  0  0  0  0  0  0  0  0  0  0  0
   -0.7500   -1.2990    0.0000 C   0  0  0  0  0  0  0  0  0  0  0  0
   -1.5000    0.0000    0.0000 C   0  0  0  0  0  0  0  0  0  0  0  0
   -0.7500    1.2990    0.0000 C   0  0  0  0  0  0  0  0  0  0  0  0
    0.7500    1.2990    0.0000 C   0  0  0  0  0  0  0  0  0  0  0  0
    5.2500   -1.2990    0.0000 C   0  0  0  0  0  0  0  0  0  0  0  0
    6.0000    0.0000    0.0000 O   0  0  0  0  0  0  0  0  0  0  0  0
    6.0000   -2.5981    0.0000 N   0  0  0  0  0  0  0  0  0  0  0  0
    7.5000   -2.5981    0.0000 C   0  0  0  0  0  0  0  0  0  0  0  0
    8.2500   -3.8971    0.0000 C   0  0  0  0  0  0  0  0  0  0  0  0
    9.7500   -3.8971    0.0000 C   0  0  0  0  0  0  0  0  0  0  0  0
   11.2500   -3.8971    0.0000 C   0  0  0  0  0  0  0  0  0  0  0  0
    8.2500   -1.2990    0.0000 C   0  0  0  0  0  0  0  0  0  0  0  0
    7.5000    0.0000    0.0000 O   0  0  0  0  0  0  0  0  0  0  0  0
    9.7500   -1.2990    0.0000 O   0  0  0  0  0  0  0  0  0  0  0  0
  2  1  1  6
  2  3  1  0
  3  4  1  0
  4  5  1  0
  4  6  1  0
  2  7  1  0
  7  8  2  0
  7  9  1  0
  9 10  1  0
 10 11  1  6
 11 12  1  0
 12 13  2  0
 13 14  1  0
 14 15  2  0
 15 16  1  0
 16 17  2  0
 10 18  1  0
 18 19  2  0
 18 20  1  0
 20 21  1  0
 21 22  1  6
 22 23  1  0
 23 24  3  0
 21 25  1  0
 25 26  2  0
 25 27  1  0
 17 12  1  0
M  END
$$$$

     RDKit          2D

 27 27  0  0  0  0  0  0  0  0999 V2000
    1.5000   -5.1962    0.0000 N   0  0  0  0  0  0  0  0  0  0  0  0
    3.0000   -5.1962    0.0000 C   0  0  0  0  0  0  0  0  0  0  0  0
    3.7500   -6.4952    0.0000 C   0  0  0  0  0  0  0  0  0  0  0  0
    3.0000   -7.7942    0.0000 C   0  0  0  0  0  0  0  0  0  0  0  0
    3.7500   -9.0933    0.0000 C   0  0  0  0  0  0  0  0  0  0  0  0
    1.5000   -7.7942    0.0000 C   0  0  0  0  0  0  0  0  0  0  0  0
    3.7500   -3.8971    0.0000 C   0  0  0  0  0  0  0  0  0  0  0  0
    5.2500   -3.8971    0.0000 O   0  0  0  0  0  0  0  0  0  0  0  0
    3.0000   -2.5981    0.0000 N   0  0  0  0  0  0  0  0  0  0  0  0
    3.7500   -1.2990    0.0000 C   0  0  0  0  0  0  0  0  0  0  0  0
    3.0000    0.0000    0.0000 C   0  0  0  0  0  0  0  0  0  0  0  0
    1.5000    0.0000    0.0000 C   0  0  0  0  0  0  0  0  0  0  0  0
    0.7500   -1.2990    0.0000 C   0  0  0  0  0  0  0  0  0  0  0  0
   -0.7500   -1.2990    0.0000 C   0  0  0  0  0  0  0  0  0  0  0  0
   -1.5000    0.0000    0.0000 C   0  0  0  0  0  0  0  0  0  0  0  0
   -0.7500    1.2990    0.0000 C   0  0  0  0  0  0  0  0  0  0  0  0
    0.7500    1.2990    0.0000 C   0  0  0  0  0  0  0  0  0  0  0  0
    5.2500   -1.2990    0.0000 C   0  0  0  0  0  0  0  0  0  0  0  0
    6.0000    0.0000    0.0000 O   0  0  0  0  0  0  0  0  0  0  0  0
    6.0000   -2.5981    0.0000 N   0  0  0  0  0  0  0  0  0  0  0  0
    7.5000   -2.5981    0.0000 C   0  0  0  0  0  0  0  0  0  0  0  0
    8.2500   -3.8971    0.0000 C   0  0  0  0  0  0  0  0  0  0  0  0
    9.7500   -3.8971    0.0000 C   0  0  0  0  0  0  0  0  0  0  0  0
   11.2500   -3.8971    0.0000 C   0  0  0  0  0  0  0  0  0  0  0  0
    8.2500   -1.2990    0.0000 C   0  0  0  0  0  0  0  0  0  0  0  0
    7.5000    0.0000    0.0000 O   0  0  0  0  0  0  0  0  0  0  0  0
    9.7500   -1.2990    0.0000 O   0  0  0  0  0  0  0  0  0  0  0  0
  2  1  1  1
  2  3  1  0
  3  4  1  0
  4  5  1  0
  4  6  1  0
  2  7  1  0
  7  8  2  0
  7  9  1  0
  9 10  1  0
 10 11  1  6
 11 12  1  0
 12 13  2  0
 13 14  1  0
 14 15  2  0
 15 16  1  0
 16 17  2  0
 10 18  1  0
 18 19  2  0
 18 20  1  0
 20 21  1  0
 21 22  1  6
 22 23  1  0
 23 24  3  0
 21 25  1  0
 25 26  2  0
 25 27  1  0
 17 12  1  0
M  END
$$$$

     RDKit          2D

 26 26  0  0  0  0  0  0  0  0999 V2000
    1.5000   -5.1962    0.0000 N   0  0  0  0  0  0  0  0  0  0  0  0
    3.0000   -5.1962    0.0000 C   0  0  0  0  0  0  0  0  0  0  0  0
    3.7500   -6.4952    0.0000 C   0  0  0  0  0  0  0  0  0  0  0  0
    3.0000   -7.7942    0.0000 C   0  0  0  0  0  0  0  0  0  0  0  0
    5.2500   -6.4952    0.0000 C   0  0  0  0  0  0  0  0  0  0  0  0
    3.7500   -3.8971    0.0000 C   0  0  0  0  0  0  0  0  0  0  0  0
    5.2500   -3.8971    0.0000 O   0  0  0  0  0  0  0  0  0  0  0  0
    3.0000   -2.5981    0.0000 N   0  0  0  0  0  0  0  0  0  0  0  0
    3.7500   -1.2990    0.0000 C   0  0  0  0  0  0  0  0  0  0  0  0
    3.0000    0.0000    0.0000 C   0  0  0  0  0  0  0  0  0  0  0  0
    1.5000    0.0000    0.0000 C   0  0  0  0  0  0  0  0  0  0  0  0
    0.7500   -1.2990    0.0000 C   0  0  0  0  0  0  0  0  0  0  0  0
   -0.7500   -1.2990    0.0000 C   0  0  0  0  0  0  0  0  0  0  0  0
   -1.5000    0.0000    0.0000 C   0  0  0  0  0  0  0  0  0  0  0  0
   -0.7500    1.2990    0.0000 C   0  0  0  0  0  0  0  0  0  0  0  0
    0.7500    1.2990    0.0000 C   0  0  0  0  0  0  0  0  0  0  0  0
    5.2500   -1.2990    0.0000 C   0  0  0  0  0  0  0  0  0  0  0  0
    6.0000    0.0000    0.0000 O   0  0  0  0  0  0  0  0  0  0  0  0
    6.0000   -2.5981    0.0000 N   0  0  0  0  0  0  0  0  0  0  0  0
    7.5000   -2.5981    0.0000 C   0  0  0  0  0  0  0  0  0  0  0  0
    8.2500   -3.8971    0.0000 C   0  0  0  0  0  0  0  0  0  0  0  0
    9.7500   -3.8971    0.0000 C   0  0  0  0  0  0  0  0  0  0  0  0
   11.2500   -3.8971    0.0000 C   0  0  0  0  0  0  0  0  0  0  0  0
    8.2500   -1.2990    0.0000 C   0  0  0  0  0  0  0  0  0  0  0  0
    7.5000    0.0000    0.0000 O   0  0  0  0  0  0  0  0  0  0  0  0
    9.7500   -1.2990    0.0000 O   0  0  0  0  0  0  0  0  0  0  0  0
  2  1  1  6
  2  3  1  0
  3  4  1  0
  3  5  1  0
  2  6  1  0
  6  7  2  0
  6  8  1  0
  8  9  1  0
  9 10  1  6
 10 11  1  0
 11 12  2  0
 12 13  1  0
 13 14  2  0
 14 15  1  0
 15 16  2  0
  9 17  1  0
 17 18  2  0
 17 19  1  0
 19 20  1  0
 20 21  1  6
 21 22  1  0
 22 23  3  0
 20 24  1  0
 24 25  2  0
 24 26  1  0
 16 11  1  0
M  END
$$$$

     RDKit          2D

 26 26  0  0  0  0  0  0  0  0999 V2000
    1.5000   -5.1962    0.0000 N   0  0  0  0  0  0  0  0  0  0  0  0
    3.0000   -5.1962    0.0000 C   0  0  0  0  0  0  0  0  0  0  0  0
    3.7500   -6.4952    0.0000 C   0  0  0  0  0  0  0  0  0  0  0  0
    3.0000   -7.7942    0.0000 C   0  0  0  0  0  0  0  0  0  0  0  0
    5.2500   -6.4952    0.0000 C   0  0  0  0  0  0  0  0  0  0  0  0
    3.7500   -3.8971    0.0000 C   0  0  0  0  0  0  0  0  0  0  0  0
    5.2500   -3.8971    0.0000 O   0  0  0  0  0  0  0  0  0  0  0  0
    3.0000   -2.5981    0.0000 N   0  0  0  0  0  0  0  0  0  0  0  0
    3.7500   -1.2990    0.0000 C   0  0  0  0  0  0  0  0  0  0  0  0
    3.0000    0.0000    0.0000 C   0  0  0  0  0  0  0  0  0  0  0  0
    1.5000    0.0000    0.0000 C   0  0  0  0  0  0  0  0  0  0  0  0
    0.7500   -1.2990    0.0000 C   0  0  0  0  0  0  0  0  0  0  0  0
   -0.7500   -1.2990    0.0000 C   0  0  0  0  0  0  0  0  0  0  0  0
   -1.5000    0.0000    0.0000 C   0  0  0  0  0  0  0  0  0  0  0  0
   -0.7500    1.2990    0.0000 C   0  0  0  0  0  0  0  0  0  0  0  0
    0.7500    1.2990    0.0000 C   0  0  0  0  0  0  0  0  0  0  0  0
    5.2500   -1.2990    0.0000 C   0  0  0  0  0  0  0  0  0  0  0  0
    6.0000    0.0000    0.0000 O   0  0  0  0  0  0  0  0  0  0  0  0
    6.0000   -2.5981    0.0000 N   0  0  0  0  0  0  0  0  0  0  0  0
    7.5000   -2.5981    0.0000 C   0  0  0  0  0  0  0  0  0  0  0  0
    8.2500   -3.8971    0.0000 C   0  0  0  0  0  0  0  0  0  0  0  0
    9.7500   -3.8971    0.0000 C   0  0  0  0  0  0  0  0  0  0  0  0
   11.2500   -3.8971    0.0000 C   0  0  0  0  0  0  0  0  0  0  0  0
    8.2500   -1.2990    0.0000 C   0  0  0  0  0  0  0  0  0  0  0  0
    7.5000    0.0000    0.0000 O   0  0  0  0  0  0  0  0  0  0  0  0
    9.7500   -1.2990    0.0000 O   0  0  0  0  0  0  0  0  0  0  0  0
  2  1  1  1
  2  3  1  0
  3  4  1  0
  3  5  1  0
  2  6  1  0
  6  7  2  0
  6  8  1  0
  8  9  1  0
  9 10  1  6
 10 11  1  0
 11 12  2  0
 12 13  1  0
 13 14  2  0
 14 15  1  0
 15 16  2  0
  9 17  1  0
 17 18  2  0
 17 19  1  0
 19 20  1  0
 20 21  1  6
 21 22  1  0
 22 23  3  0
 20 24  1  0
 24 25  2  0
 24 26  1  0
 16 11  1  0
M  END
$$$$

     RDKit          2D

 28 28  0  0  0  0  0  0  0  0999 V2000
    1.5000   -5.1962    0.0000 N   0  0  0  0  0  0  0  0  0  0  0  0
    0.7500   -6.4952    0.0000 C   0  0  0  0  0  0  0  0  0  0  0  0
    3.0000   -5.1962    0.0000 C   0  0  0  0  0  0  0  0  0  0  0  0
    3.7500   -6.4952    0.0000 C   0  0  0  0  0  0  0  0  0  0  0  0
    3.0000   -7.7942    0.0000 C   0  0  0  0  0  0  0  0  0  0  0  0
    3.7500   -9.0933    0.0000 C   0  0  0  0  0  0  0  0  0  0  0  0
    1.5000   -7.7942    0.0000 C   0  0  0  0  0  0  0  0  0  0  0  0
    3.7500   -3.8971    0.0000 C   0  0  0  0  0  0  0  0  0  0  0  0
    5.2500   -3.8971    0.0000 O   0  0  0  0  0  0  0  0  0  0  0  0
    3.0000   -2.5981    0.0000 N   0  0  0  0  0  0  0  0  0  0  0  0
    3.7500   -1.2990    0.0000 C   0  0  0  0  0  0  0  0  0  0  0  0
    3.0000    0.0000    0.0000 C   0  0  0  0  0  0  0  0  0  0  0  0
    1.5000    0.0000    0.0000 C   0  0  0  0  0  0  0  0  0  0  0  0
    0.7500   -1.2990    0.0000 C   0  0  0  0  0  0  0  0  0  0  0  0
   -0.7500   -1.2990    0.0000 C   0  0  0  0  0  0  0  0  0  0  0  0
   -1.5000    0.0000    0.0000 C   0  0  0  0  0  0  0  0  0  0  0  0
   -0.7500    1.2990    0.0000 C   0  0  0  0  0  0  0  0  0  0  0  0
    0.7500    1.2990    0.0000 C   0  0  0  0  0  0  0  0  0  0  0  0
    5.2500   -1.2990    0.0000 C   0  0  0  0  0  0  0  0  0  0  0  0
    6.0000    0.0000    0.0000 O   0  0  0  0  0  0  0  0  0  0  0  0
    6.0000   -2.5981    0.0000 N   0  0  0  0  0  0  0  0  0  0  0  0
    7.5000   -2.5981    0.0000 C   0  0  0  0  0  0  0  0  0  0  0  0
    8.2500   -3.8971    0.0000 C   0  0  0  0  0  0  0  0  0  0  0  0
    9.7500   -3.8971    0.0000 C   0  0  0  0  0  0  0  0  0  0  0  0
   11.2500   -3.8971    0.0000 C   0  0  0  0  0  0  0  0  0  0  0  0
    8.2500   -1.2990    0.0000 C   0  0  0  0  0  0  0  0  0  0  0  0
    7.5000    0.0000    0.0000 O   0  0  0  0  0  0  0  0  0  0  0  0
    9.7500   -1.2990    0.0000 O   0  0  0  0  0  0  0  0  0  0  0  0
  1  2  1  0
  1  3  1  0
  3  4  1  6
  4  5  1  0
  5  6  1  0
  5  7  1  0
  3  8  1  0
  8  9  2  0
  8 10  1  0
 10 11  1  0
 11 12  1  6
 12 13  1  0
 13 14  2  0
 14 15  1  0
 15 16  2  0
 16 17  1  0
 17 18  2  0
 11 19  1  0
 19 20  2  0
 19 21  1  0
 21 22  1  0
 22 23  1  6
 23 24  1  0
 24 25  3  0
 22 26  1  0
 26 27  2  0
 26 28  1  0
 18 13  1  0
M  END
$$$$

     RDKit          2D

 28 28  0  0  0  0  0  0  0  0999 V2000
    1.5000   -5.1962    0.0000 N   0  0  0  0  0  0  0  0  0  0  0  0
    0.7500   -6.4952    0.0000 C   0  0  0  0  0  0  0  0  0  0  0  0
    3.0000   -5.1962    0.0000 C   0  0  0  0  0  0  0  0  0  0  0  0
    3.7500   -6.4952    0.0000 C   0  0  0  0  0  0  0  0  0  0  0  0
    3.0000   -7.7942    0.0000 C   0  0  0  0  0  0  0  0  0  0  0  0
    3.7500   -9.0933    0.0000 C   0  0  0  0  0  0  0  0  0  0  0  0
    1.5000   -7.7942    0.0000 C   0  0  0  0  0  0  0  0  0  0  0  0
    3.7500   -3.8971    0.0000 C   0  0  0  0  0  0  0  0  0  0  0  0
    5.2500   -3.8971    0.0000 O   0  0  0  0  0  0  0  0  0  0  0  0
    3.0000   -2.5981    0.0000 N   0  0  0  0  0  0  0  0  0  0  0  0
    3.7500   -1.2990    0.0000 C   0  0  0  0  0  0  0  0  0  0  0  0
    3.0000    0.0000    0.0000 C   0  0  0  0  0  0  0  0  0  0  0  0
    1.5000    0.0000    0.0000 C   0  0  0  0  0  0  0  0  0  0  0  0
    0.7500   -1.2990    0.0000 C   0  0  0  0  0  0  0  0  0  0  0  0
   -0.7500   -1.2990    0.0000 C   0  0  0  0  0  0  0  0  0  0  0  0
   -1.5000    0.0000    0.0000 C   0  0  0  0  0  0  0  0  0  0  0  0
   -0.7500    1.2990    0.0000 C   0  0  0  0  0  0  0  0  0  0  0  0
    0.7500    1.2990    0.0000 C   0  0  0  0  0  0  0  0  0  0  0  0
    5.2500   -1.2990    0.0000 C   0  0  0  0  0  0  0  0  0  0  0  0
    6.0000    0.0000    0.0000 O   0  0  0  0  0  0  0  0  0  0  0  0
    6.0000   -2.5981    0.0000 N   0  0  0  0  0  0  0  0  0  0  0  0
    7.5000   -2.5981    0.0000 C   0  0  0  0  0  0  0  0  0  0  0  0
    8.2500   -3.8971    0.0000 C   0  0  0  0  0  0  0  0  0  0  0  0
    9.7500   -3.8971    0.0000 C   0  0  0  0  0  0  0  0  0  0  0  0
   11.2500   -3.8971    0.0000 C   0  0  0  0  0  0  0  0  0  0  0  0
    8.2500   -1.2990    0.0000 C   0  0  0  0  0  0  0  0  0  0  0  0
    7.5000    0.0000    0.0000 O   0  0  0  0  0  0  0  0  0  0  0  0
    9.7500   -1.2990    0.0000 O   0  0  0  0  0  0  0  0  0  0  0  0
  1  2  1  0
  1  3  1  0
  3  4  1  1
  4  5  1  0
  5  6  1  0
  5  7  1  0
  3  8  1  0
  8  9  2  0
  8 10  1  0
 10 11  1  0
 11 12  1  6
 12 13  1  0
 13 14  2  0
 14 15  1  0
 15 16  2  0
 16 17  1  0
 17 18  2  0
 11 19  1  0
 19 20  2  0
 19 21  1  0
 21 22  1  0
 22 23  1  6
 23 24  1  0
 24 25  3  0
 22 26  1  0
 26 27  2  0
 26 28  1  0
 18 13  1  0
M  END
$$$$

     RDKit          2D

 30 31  0  0  0  0  0  0  0  0999 V2000
   -0.7500   -3.8971    0.0000 N   0  0  0  0  0  0  0  0  0  0  0  0
    0.7500   -3.8971    0.0000 C   0  0  0  0  0  0  0  0  0  0  0  0
    1.5000   -2.5981    0.0000 C   0  0  0  0  0  0  0  0  0  0  0  0
    0.7500   -1.2990    0.0000 C   0  0  0  0  0  0  0  0  0  0  0  0
    1.5000    0.0000    0.0000 C   0  0  0  0  0  0  0  0  0  0  0  0
    0.7500    1.2990    0.0000 C   0  0  0  0  0  0  0  0  0  0  0  0
   -0.7500    1.2990    0.0000 C   0  0  0  0  0  0  0  0  0  0  0  0
   -1.5000    0.0000    0.0000 C   0  0  0  0  0  0  0  0  0  0  0  0
   -0.7500   -1.2990    0.0000 C   0  0  0  0  0  0  0  0  0  0  0  0
    1.5000   -5.1962    0.0000 C   0  0  0  0  0  0  0  0  0  0  0  0
    3.0000   -5.1962    0.0000 O   0  0  0  0  0  0  0  0  0  0  0  0
    0.7500   -6.4952    0.0000 N   0  0  0  0  0  0  0  0  0  0  0  0
    1.5000   -7.7942    0.0000 C   0  0  0  0  0  0  0  0  0  0  0  0
    0.7500   -9.0933    0.0000 C   0  0  0  0  0  0  0  0  0  0  0  0
    1.5000  -10.3923    0.0000 C   0  0  0  0  0  0  0  0  0  0  0  0
    0.7500  -11.6913    0.0000 C   0  0  0  0  0  0  0  0  0  0  0  0
    1.5000  -12.9904    0.0000 C   0  0  0  0  0  0  0  0  0  0  0  0
    3.0000  -12.9904    0.0000 C   0  0  0  0  0  0  0  0  0  0  0  0
    3.7500  -11.6913    0.0000 C   0  0  0  0  0  0  0  0  0  0  0  0
    3.0000  -10.3923    0.0000 C   0  0  0  0  0  0  0  0  0  0  0  0
    3.0000   -7.7942    0.0000 C   0  0  0  0  0  0  0  0  0  0  0  0
    3.7500   -6.4952    0.0000 O   0  0  0  0  0  0  0  0  0  0  0  0
    3.7500   -9.0933    0.0000 N   0  0  0  0  0  0  0  0  0  0  0  0
    5.2500   -9.0933    0.0000 C   0  0  0  0  0  0  0  0  0  0  0  0
    6.0000  -10.3923    0.0000 C   0  0  0  0  0  0  0  0  0  0  0  0
    7.5000  -10.3923    0.0000 C   0  0  0  0  0  0  0  0  0  0  0  0
    9.0000  -10.3923    0.0000 C   0  0  0  0  0  0  0  0  0  0  0  0
    6.0000   -7.7942    0.0000 C   0  0  0  0  0  0  0  0  0  0  0  0
    5.2500   -6.4952    0.0000 O   0  0  0  0  0  0  0  0  0  0  0  0
    7.5000   -7.7942    0.0000 O   0  0  0  0  0  0  0  0  0  0  0  0
  2  1  1  1
  2  3  1  0
  3  4  1  0
  4  5  2  0
  5  6  1  0
  6  7  2  0
  7  8  1  0
  8  9  2  0
  2 10  1  0
 10 11  2  0
 10 12  1  0
 12 13  1  0
 13 14  1  1
 14 15  1  0
 15 16  2  0
 16 17  1  0
 17 18  2  0
 18 19  1  0
 19 20  2  0
 13 21  1  0
 21 22  2  0
 21 23  1  0
 23 24  1  0
 24 25  1  6
 25 26  1  0
 26 27  3  0
 24 28  1  0
 28 29  2  0
 28 30  1  0
  9  4  1  0
 20 15  1  0
M  END
$$$$

     RDKit          2D

 30 31  0  0  0  0  0  0  0  0999 V2000
   -0.7500   -3.8971    0.0000 N   0  0  0  0  0  0  0  0  0  0  0  0
    0.7500   -3.8971    0.0000 C   0  0  0  0  0  0  0  0  0  0  0  0
    1.5000   -2.5981    0.0000 C   0  0  0  0  0  0  0  0  0  0  0  0
    0.7500   -1.2990    0.0000 C   0  0  0  0  0  0  0  0  0  0  0  0
    1.5000    0.0000    0.0000 C   0  0  0  0  0  0  0  0  0  0  0  0
    0.7500    1.2990    0.0000 C   0  0  0  0  0  0  0  0  0  0  0  0
   -0.7500    1.2990    0.0000 C   0  0  0  0  0  0  0  0  0  0  0  0
   -1.5000    0.0000    0.0000 C   0  0  0  0  0  0  0  0  0  0  0  0
   -0.7500   -1.2990    0.0000 C   0  0  0  0  0  0  0  0  0  0  0  0
    1.5000   -5.1962    0.0000 C   0  0  0  0  0  0  0  0  0  0  0  0
    3.0000   -5.1962    0.0000 O   0  0  0  0  0  0  0  0  0  0  0  0
    0.7500   -6.4952    0.0000 N   0  0  0  0  0  0  0  0  0  0  0  0
    1.5000   -7.7942    0.0000 C   0  0  0  0  0  0  0  0  0  0  0  0
    0.7500   -9.0933    0.0000 C   0  0  0  0  0  0  0  0  0  0  0  0
    1.5000  -10.3923    0.0000 C   0  0  0  0  0  0  0  0  0  0  0  0
    0.7500  -11.6913    0.0000 C   0  0  0  0  0  0  0  0  0  0  0  0
    1.5000  -12.9904    0.0000 C   0  0  0  0  0  0  0  0  0  0  0  0
    3.0000  -12.9904    0.0000 C   0  0  0  0  0  0  0  0  0  0  0  0
    3.7500  -11.6913    0.0000 C   0  0  0  0  0  0  0  0  0  0  0  0
    3.0000  -10.3923    0.0000 C   0  0  0  0  0  0  0  0  0  0  0  0
    3.0000   -7.7942    0.0000 C   0  0  0  0  0  0  0  0  0  0  0  0
    3.7500   -6.4952    0.0000 O   0  0  0  0  0  0  0  0  0  0  0  0
    3.7500   -9.0933    0.0000 N   0  0  0  0  0  0  0  0  0  0  0  0
    5.2500   -9.0933    0.0000 C   0  0  0  0  0  0  0  0  0  0  0  0
    6.0000  -10.3923    0.0000 C   0  0  0  0  0  0  0  0  0  0  0  0
    7.5000  -10.3923    0.0000 C   0  0  0  0  0  0  0  0  0  0  0  0
    9.0000  -10.3923    0.0000 C   0  0  0  0  0  0  0  0  0  0  0  0
    6.0000   -7.7942    0.0000 C   0  0  0  0  0  0  0  0  0  0  0  0
    5.2500   -6.4952    0.0000 O   0  0  0  0  0  0  0  0  0  0  0  0
    7.5000   -7.7942    0.0000 O   0  0  0  0  0  0  0  0  0  0  0  0
  2  1  1  6
  2  3  1  0
  3  4  1  0
  4  5  2  0
  5  6  1  0
  6  7  2  0
  7  8  1  0
  8  9  2  0
  2 10  1  0
 10 11  2  0
 10 12  1  0
 12 13  1  0
 13 14  1  1
 14 15  1  0
 15 16  2  0
 16 17  1  0
 17 18  2  0
 18 19  1  0
 19 20  2  0
 13 21  1  0
 21 22  2  0
 21 23  1  0
 23 24  1  0
 24 25  1  6
 25 26  1  0
 26 27  3  0
 24 28  1  0
 28 29  2  0
 28 30  1  0
  9  4  1  0
 20 15  1  0
M  END
$$$$

     RDKit          2D

 31 32  0  0  0  0  0  0  0  0999 V2000
   -0.7500   -3.8971    0.0000 N   0  0  0  0  0  0  0  0  0  0  0  0
   -1.5000   -5.1962    0.0000 C   0  0  0  0  0  0  0  0  0  0  0  0
    0.7500   -3.8971    0.0000 C   0  0  0  0  0  0  0  0  0  0  0  0
    1.5000   -2.5981    0.0000 C   0  0  0  0  0  0  0  0  0  0  0  0
    0.7500   -1.2990    0.0000 C   0  0  0  0  0  0  0  0  0  0  0  0
    1.5000    0.0000    0.0000 C   0  0  0  0  0  0  0  0  0  0  0  0
    0.7500    1.2990    0.0000 C   0  0  0  0  0  0  0  0  0  0  0  0
   -0.7500    1.2990    0.0000 C   0  0  0  0  0  0  0  0  0  0  0  0
   -1.5000    0.0000    0.0000 C   0  0  0  0  0  0  0  0  0  0  0  0
   -0.7500   -1.2990    0.0000 C   0  0  0  0  0  0  0  0  0  0  0  0
    1.5000   -5.1962    0.0000 C   0  0  0  0  0  0  0  0  0  0  0  0
    3.0000   -5.1962    0.0000 O   0  0  0  0  0  0  0  0  0  0  0  0
    0.7500   -6.4952    0.0000 N   0  0  0  0  0  0  0  0  0  0  0  0
    1.5000   -7.7942    0.0000 C   0  0  0  0  0  0  0  0  0  0  0  0
    0.7500   -9.0933    0.0000 C   0  0  0  0  0  0  0  0  0  0  0  0
    1.5000  -10.3923    0.0000 C   0  0  0  0  0  0  0  0  0  0  0  0
    0.7500  -11.6913    0.0000 C   0  0  0  0  0  0  0  0  0  0  0  0
    1.5000  -12.9904    0.0000 C   0  0  0  0  0  0  0  0  0  0  0  0
    3.0000  -12.9904    0.0000 C   0  0  0  0  0  0  0  0  0  0  0  0
    3.7500  -11.6913    0.0000 C   0  0  0  0  0  0  0  0  0  0  0  0
    3.0000  -10.3923    0.0000 C   0  0  0  0  0  0  0  0  0  0  0  0
    3.0000   -7.7942    0.0000 C   0  0  0  0  0  0  0  0  0  0  0  0
    3.7500   -6.4952    0.0000 O   0  0  0  0  0  0  0  0  0  0  0  0
    3.7500   -9.0933    0.0000 N   0  0  0  0  0  0  0  0  0  0  0  0
    5.2500   -9.0933    0.0000 C   0  0  0  0  0  0  0  0  0  0  0  0
    6.0000  -10.3923    0.0000 C   0  0  0  0  0  0  0  0  0  0  0  0
    7.5000  -10.3923    0.0000 C   0  0  0  0  0  0  0  0  0  0  0  0
    9.0000  -10.3923    0.0000 C   0  0  0  0  0  0  0  0  0  0  0  0
    6.0000   -7.7942    0.0000 C   0  0  0  0  0  0  0  0  0  0  0  0
    5.2500   -6.4952    0.0000 O   0  0  0  0  0  0  0  0  0  0  0  0
    7.5000   -7.7942    0.0000 O   0  0  0  0  0  0  0  0  0  0  0  0
  1  2  1  0
  1  3  1  0
  3  4  1  1
  4  5  1  0
  5  6  2  0
  6  7  1  0
  7  8  2  0
  8  9  1  0
  9 10  2  0
  3 11  1  0
 11 12  2  0
 11 13  1  0
 13 14  1  0
 14 15  1  1
 15 16  1  0
 16 17  2  0
 17 18  1  0
 18 19  2  0
 19 20  1  0
 20 21  2  0
 14 22  1  0
 22 23  2  0
 22 24  1  0
 24 25  1  0
 25 26  1  6
 26 27  1  0
 27 28  3  0
 25 29  1  0
 29 30  2  0
 29 31  1  0
 10  5  1  0
 21 16  1  0
M  END
$$$$

     RDKit          2D

 31 32  0  0  0  0  0  0  0  0999 V2000
   -0.7500   -3.8971    0.0000 N   0  0  0  0  0  0  0  0  0  0  0  0
   -1.5000   -5.1962    0.0000 C   0  0  0  0  0  0  0  0  0  0  0  0
    0.7500   -3.8971    0.0000 C   0  0  0  0  0  0  0  0  0  0  0  0
    1.5000   -2.5981    0.0000 C   0  0  0  0  0  0  0  0  0  0  0  0
    0.7500   -1.2990    0.0000 C   0  0  0  0  0  0  0  0  0  0  0  0
    1.5000    0.0000    0.0000 C   0  0  0  0  0  0  0  0  0  0  0  0
    0.7500    1.2990    0.0000 C   0  0  0  0  0  0  0  0  0  0  0  0
   -0.7500    1.2990    0.0000 C   0  0  0  0  0  0  0  0  0  0  0  0
   -1.5000    0.0000    0.0000 C   0  0  0  0  0  0  0  0  0  0  0  0
   -0.7500   -1.2990    0.0000 C   0  0  0  0  0  0  0  0  0  0  0  0
    1.5000   -5.1962    0.0000 C   0  0  0  0  0  0  0  0  0  0  0  0
    3.0000   -5.1962    0.0000 O   0  0  0  0  0  0  0  0  0  0  0  0
    0.7500   -6.4952    0.0000 N   0  0  0  0  0  0  0  0  0  0  0  0
    1.5000   -7.7942    0.0000 C   0  0  0  0  0  0  0  0  0  0  0  0
    0.7500   -9.0933    0.0000 C   0  0  0  0  0  0  0  0  0  0  0  0
    1.5000  -10.3923    0.0000 C   0  0  0  0  0  0  0  0  0  0  0  0
    0.7500  -11.6913    0.0000 C   0  0  0  0  0  0  0  0  0  0  0  0
    1.5000  -12.9904    0.0000 C   0  0  0  0  0  0  0  0  0  0  0  0
    3.0000  -12.9904    0.0000 C   0  0  0  0  0  0  0  0  0  0  0  0
    3.7500  -11.6913    0.0000 C   0  0  0  0  0  0  0  0  0  0  0  0
    3.0000  -10.3923    0.0000 C   0  0  0  0  0  0  0  0  0  0  0  0
    3.0000   -7.7942    0.0000 C   0  0  0  0  0  0  0  0  0  0  0  0
    3.7500   -6.4952    0.0000 O   0  0  0  0  0  0  0  0  0  0  0  0
    3.7500   -9.0933    0.0000 N   0  0  0  0  0  0  0  0  0  0  0  0
    5.2500   -9.0933    0.0000 C   0  0  0  0  0  0  0  0  0  0  0  0
    6.0000  -10.3923    0.0000 C   0  0  0  0  0  0  0  0  0  0  0  0
    7.5000  -10.3923    0.0000 C   0  0  0  0  0  0  0  0  0  0  0  0
    9.0000  -10.3923    0.0000 C   0  0  0  0  0  0  0  0  0  0  0  0
    6.0000   -7.7942    0.0000 C   0  0  0  0  0  0  0  0  0  0  0  0
    5.2500   -6.4952    0.0000 O   0  0  0  0  0  0  0  0  0  0  0  0
    7.5000   -7.7942    0.0000 O   0  0  0  0  0  0  0  0  0  0  0  0
  1  2  1  0
  1  3  1  0
  3  4  1  6
  4  5  1  0
  5  6  2  0
  6  7  1  0
  7  8  2  0
  8  9  1  0
  9 10  2  0
  3 11  1  0
 11 12  2  0
 11 13  1  0
 13 14  1  0
 14 15  1  1
 15 16  1  0
 16 17  2  0
 17 18  1  0
 18 19  2  0
 19 20  1  0
 20 21  2  0
 14 22  1  0
 22 23  2  0
 22 24  1  0
 24 25  1  0
 25 26  1  6
 26 27  1  0
 27 28  3  0
 25 29  1  0
 29 30  2  0
 29 31  1  0
 10  5  1  0
 21 16  1  0
M  END
$$$$

     RDKit          2D

 26 26  0  0  0  0  0  0  0  0999 V2000
    1.5000   -5.1962    0.0000 N   0  0  0  0  0  0  0  0  0  0  0  0
    3.0000   -5.1962    0.0000 C   0  0  0  0  0  0  0  0  0  0  0  0
    3.7500   -6.4952    0.0000 C   0  0  0  0  0  0  0  0  0  0  0  0
    5.2500   -6.4952    0.0000 O   0  0  0  0  0  0  0  0  0  0  0  0
    3.0000   -7.7942    0.0000 C   0  0  0  0  0  0  0  0  0  0  0  0
    3.7500   -3.8971    0.0000 C   0  0  0  0  0  0  0  0  0  0  0  0
    5.2500   -3.8971    0.0000 O   0  0  0  0  0  0  0  0  0  0  0  0
    3.0000   -2.5981    0.0000 N   0  0  0  0  0  0  0  0  0  0  0  0
    3.7500   -1.2990    0.0000 C   0  0  0  0  0  0  0  0  0  0  0  0
    3.0000    0.0000    0.0000 C   0  0  0  0  0  0  0  0  0  0  0  0
    1.5000    0.0000    0.0000 C   0  0  0  0  0  0  0  0  0  0  0  0
    0.7500   -1.2990    0.0000 C   0  0  0  0  0  0  0  0  0  0  0  0
   -0.7500   -1.2990    0.0000 C   0  0  0  0  0  0  0  0  0  0  0  0
   -1.5000    0.0000    0.0000 C   0  0  0  0  0  0  0  0  0  0  0  0
   -0.7500    1.2990    0.0000 C   0  0  0  0  0  0  0  0  0  0  0  0
    0.7500    1.2990    0.0000 C   0  0  0  0  0  0  0  0  0  0  0  0
    5.2500   -1.2990    0.0000 C   0  0  0  0  0  0  0  0  0  0  0  0
    6.0000    0.0000    0.0000 O   0  0  0  0  0  0  0  0  0  0  0  0
    6.0000   -2.5981    0.0000 N   0  0  0  0  0  0  0  0  0  0  0  0
    7.5000   -2.5981    0.0000 C   0  0  0  0  0  0  0  0  0  0  0  0
    8.2500   -3.8971    0.0000 C   0  0  0  0  0  0  0  0  0  0  0  0
    9.7500   -3.8971    0.0000 C   0  0  0  0  0  0  0  0  0  0  0  0
   11.2500   -3.8971    0.0000 C   0  0  0  0  0  0  0  0  0  0  0  0
    8.2500   -1.2990    0.0000 C   0  0  0  0  0  0  0  0  0  0  0  0
    7.5000    0.0000    0.0000 O   0  0  0  0  0  0  0  0  0  0  0  0
    9.7500   -1.2990    0.0000 O   0  0  0  0  0  0  0  0  0  0  0  0
  2  1  1  6
  2  3  1  0
  3  4  1  0
  3  5  1  6
  2  6  1  0
  6  7  2  0
  6  8  1  0
  8  9  1  0
  9 10  1  6
 10 11  1  0
 11 12  2  0
 12 13  1  0
 13 14  2  0
 14 15  1  0
 15 16  2  0
  9 17  1  0
 17 18  2  0
 17 19  1  0
 19 20  1  0
 20 21  1  6
 21 22  1  0
 22 23  3  0
 20 24  1  0
 24 25  2  0
 24 26  1  0
 16 11  1  0
M  END
$$$$

     RDKit          2D

 26 26  0  0  0  0  0  0  0  0999 V2000
    1.5000   -5.1962    0.0000 N   0  0  0  0  0  0  0  0  0  0  0  0
    3.0000   -5.1962    0.0000 C   0  0  0  0  0  0  0  0  0  0  0  0
    3.7500   -6.4952    0.0000 C   0  0  0  0  0  0  0  0  0  0  0  0
    5.2500   -6.4952    0.0000 O   0  0  0  0  0  0  0  0  0  0  0  0
    3.0000   -7.7942    0.0000 C   0  0  0  0  0  0  0  0  0  0  0  0
    3.7500   -3.8971    0.0000 C   0  0  0  0  0  0  0  0  0  0  0  0
    5.2500   -3.8971    0.0000 O   0  0  0  0  0  0  0  0  0  0  0  0
    3.0000   -2.5981    0.0000 N   0  0  0  0  0  0  0  0  0  0  0  0
    3.7500   -1.2990    0.0000 C   0  0  0  0  0  0  0  0  0  0  0  0
    3.0000    0.0000    0.0000 C   0  0  0  0  0  0  0  0  0  0  0  0
    1.5000    0.0000    0.0000 C   0  0  0  0  0  0  0  0  0  0  0  0
    0.7500   -1.2990    0.0000 C   0  0  0  0  0  0  0  0  0  0  0  0
   -0.7500   -1.2990    0.0000 C   0  0  0  0  0  0  0  0  0  0  0  0
   -1.5000    0.0000    0.0000 C   0  0  0  0  0  0  0  0  0  0  0  0
   -0.7500    1.2990    0.0000 C   0  0  0  0  0  0  0  0  0  0  0  0
    0.7500    1.2990    0.0000 C   0  0  0  0  0  0  0  0  0  0  0  0
    5.2500   -1.2990    0.0000 C   0  0  0  0  0  0  0  0  0  0  0  0
    6.0000    0.0000    0.0000 O   0  0  0  0  0  0  0  0  0  0  0  0
    6.0000   -2.5981    0.0000 N   0  0  0  0  0  0  0  0  0  0  0  0
    7.5000   -2.5981    0.0000 C   0  0  0  0  0  0  0  0  0  0  0  0
    8.2500   -3.8971    0.0000 C   0  0  0  0  0  0  0  0  0  0  0  0
    9.7500   -3.8971    0.0000 C   0  0  0  0  0  0  0  0  0  0  0  0
   11.2500   -3.8971    0.0000 C   0  0  0  0  0  0  0  0  0  0  0  0
    8.2500   -1.2990    0.0000 C   0  0  0  0  0  0  0  0  0  0  0  0
    7.5000    0.0000    0.0000 O   0  0  0  0  0  0  0  0  0  0  0  0
    9.7500   -1.2990    0.0000 O   0  0  0  0  0  0  0  0  0  0  0  0
  2  1  1  1
  2  3  1  0
  3  4  1  0
  3  5  1  6
  2  6  1  0
  6  7  2  0
  6  8  1  0
  8  9  1  0
  9 10  1  6
 10 11  1  0
 11 12  2  0
 12 13  1  0
 13 14  2  0
 14 15  1  0
 15 16  2  0
  9 17  1  0
 17 18  2  0
 17 19  1  0
 19 20  1  0
 20 21  1  6
 21 22  1  0
 22 23  3  0
 20 24  1  0
 24 25  2  0
 24 26  1  0
 16 11  1  0
M  END
$$$$

     RDKit          2D

 27 27  0  0  0  0  0  0  0  0999 V2000
    1.5000   -5.1962    0.0000 N   0  0  0  0  0  0  0  0  0  0  0  0
    0.7500   -6.4952    0.0000 C   0  0  0  0  0  0  0  0  0  0  0  0
    3.0000   -5.1962    0.0000 C   0  0  0  0  0  0  0  0  0  0  0  0
    3.7500   -6.4952    0.0000 C   0  0  0  0  0  0  0  0  0  0  0  0
    5.2500   -6.4952    0.0000 O   0  0  0  0  0  0  0  0  0  0  0  0
    3.0000   -7.7942    0.0000 C   0  0  0  0  0  0  0  0  0  0  0  0
    3.7500   -3.8971    0.0000 C   0  0  0  0  0  0  0  0  0  0  0  0
    5.2500   -3.8971    0.0000 O   0  0  0  0  0  0  0  0  0  0  0  0
    3.0000   -2.5981    0.0000 N   0  0  0  0  0  0  0  0  0  0  0  0
    3.7500   -1.2990    0.0000 C   0  0  0  0  0  0  0  0  0  0  0  0
    3.0000    0.0000    0.0000 C   0  0  0  0  0  0  0  0  0  0  0  0
    1.5000    0.0000    0.0000 C   0  0  0  0  0  0  0  0  0  0  0  0
    0.7500   -1.2990    0.0000 C   0  0  0  0  0  0  0  0  0  0  0  0
   -0.7500   -1.2990    0.0000 C   0  0  0  0  0  0  0  0  0  0  0  0
   -1.5000    0.0000    0.0000 C   0  0  0  0  0  0  0  0  0  0  0  0
   -0.7500    1.2990    0.0000 C   0  0  0  0  0  0  0  0  0  0  0  0
    0.7500    1.2990    0.0000 C   0  0  0  0  0  0  0  0  0  0  0  0
    5.2500   -1.2990    0.0000 C   0  0  0  0  0  0  0  0  0  0  0  0
    6.0000    0.0000    0.0000 O   0  0  0  0  0  0  0  0  0  0  0  0
    6.0000   -2.5981    0.0000 N   0  0  0  0  0  0  0  0  0  0  0  0
    7.5000   -2.5981    0.0000 C   0  0  0  0  0  0  0  0  0  0  0  0
    8.2500   -3.8971    0.0000 C   0  0  0  0  0  0  0  0  0  0  0  0
    9.7500   -3.8971    0.0000 C   0  0  0  0  0  0  0  0  0  0  0  0
   11.2500   -3.8971    0.0000 C   0  0  0  0  0  0  0  0  0  0  0  0
    8.2500   -1.2990    0.0000 C   0  0  0  0  0  0  0  0  0  0  0  0
    7.5000    0.0000    0.0000 O   0  0  0  0  0  0  0  0  0  0  0  0
    9.7500   -1.2990    0.0000 O   0  0  0  0  0  0  0  0  0  0  0  0
  1  2  1  0
  3  1  1  6
  3  4  1  0
  4  5  1  0
  4  6  1  6
  3  7  1  0
  7  8  2  0
  7  9  1  0
  9 10  1  0
 10 11  1  6
 11 12  1  0
 12 13  2  0
 13 14  1  0
 14 15  2  0
 15 16  1  0
 16 17  2  0
 10 18  1  0
 18 19  2  0
 18 20  1  0
 20 21  1  0
 21 22  1  6
 22 23  1  0
 23 24  3  0
 21 25  1  0
 25 26  2  0
 25 27  1  0
 17 12  1  0
M  END
$$$$

     RDKit          2D

 27 27  0  0  0  0  0  0  0  0999 V2000
    1.5000   -5.1962    0.0000 N   0  0  0  0  0  0  0  0  0  0  0  0
    0.7500   -6.4952    0.0000 C   0  0  0  0  0  0  0  0  0  0  0  0
    3.0000   -5.1962    0.0000 C   0  0  0  0  0  0  0  0  0  0  0  0
    3.7500   -6.4952    0.0000 C   0  0  0  0  0  0  0  0  0  0  0  0
    5.2500   -6.4952    0.0000 O   0  0  0  0  0  0  0  0  0  0  0  0
    3.0000   -7.7942    0.0000 C   0  0  0  0  0  0  0  0  0  0  0  0
    3.7500   -3.8971    0.0000 C   0  0  0  0  0  0  0  0  0  0  0  0
    5.2500   -3.8971    0.0000 O   0  0  0  0  0  0  0  0  0  0  0  0
    3.0000   -2.5981    0.0000 N   0  0  0  0  0  0  0  0  0  0  0  0
    3.7500   -1.2990    0.0000 C   0  0  0  0  0  0  0  0  0  0  0  0
    3.0000    0.0000    0.0000 C   0  0  0  0  0  0  0  0  0  0  0  0
    1.5000    0.0000    0.0000 C   0  0  0  0  0  0  0  0  0  0  0  0
    0.7500   -1.2990    0.0000 C   0  0  0  0  0  0  0  0  0  0  0  0
   -0.7500   -1.2990    0.0000 C   0  0  0  0  0  0  0  0  0  0  0  0
   -1.5000    0.0000    0.0000 C   0  0  0  0  0  0  0  0  0  0  0  0
   -0.7500    1.2990    0.0000 C   0  0  0  0  0  0  0  0  0  0  0  0
    0.7500    1.2990    0.0000 C   0  0  0  0  0  0  0  0  0  0  0  0
    5.2500   -1.2990    0.0000 C   0  0  0  0  0  0  0  0  0  0  0  0
    6.0000    0.0000    0.0000 O   0  0  0  0  0  0  0  0  0  0  0  0
    6.0000   -2.5981    0.0000 N   0  0  0  0  0  0  0  0  0  0  0  0
    7.5000   -2.5981    0.0000 C   0  0  0  0  0  0  0  0  0  0  0  0
    8.2500   -3.8971    0.0000 C   0  0  0  0  0  0  0  0  0  0  0  0
    9.7500   -3.8971    0.0000 C   0  0  0  0  0  0  0  0  0  0  0  0
   11.2500   -3.8971    0.0000 C   0  0  0  0  0  0  0  0  0  0  0  0
    8.2500   -1.2990    0.0000 C   0  0  0  0  0  0  0  0  0  0  0  0
    7.5000    0.0000    0.0000 O   0  0  0  0  0  0  0  0  0  0  0  0
    9.7500   -1.2990    0.0000 O   0  0  0  0  0  0  0  0  0  0  0  0
  1  2  1  0
  3  1  1  1
  3  4  1  0
  4  5  1  0
  4  6  1  6
  3  7  1  0
  7  8  2  0
  7  9  1  0
  9 10  1  0
 10 11  1  6
 11 12  1  0
 12 13  2  0
 13 14  1  0
 14 15  2  0
 15 16  1  0
 16 17  2  0
 10 18  1  0
 18 19  2  0
 18 20  1  0
 20 21  1  0
 21 22  1  6
 22 23  1  0
 23 24  3  0
 21 25  1  0
 25 26  2  0
 25 27  1  0
 17 12  1  0
M  END
$$$$

     RDKit          2D

 27 27  0  0  0  0  0  0  0  0999 V2000
    3.7500   -6.4952    0.0000 N   0  0  0  0  0  0  0  0  0  0  0  0
    3.0000   -7.7942    0.0000 C   0  0  0  0  0  0  0  0  0  0  0  0
    3.7500   -9.0933    0.0000 C   0  0  0  0  0  0  0  0  0  0  0  0
    3.0000  -10.3923    0.0000 C   0  0  0  0  0  0  0  0  0  0  0  0
    5.2500   -9.0933    0.0000 C   0  0  0  0  0  0  0  0  0  0  0  0
    3.0000   -5.1962    0.0000 C   0  0  0  0  0  0  0  0  0  0  0  0
    3.7500   -3.8971    0.0000 C   0  0  0  0  0  0  0  0  0  0  0  0
    5.2500   -3.8971    0.0000 O   0  0  0  0  0  0  0  0  0  0  0  0
    3.0000   -2.5981    0.0000 N   0  0  0  0  0  0  0  0  0  0  0  0
    3.7500   -1.2990    0.0000 C   0  0  0  0  0  0  0  0  0  0  0  0
    3.0000    0.0000    0.0000 C   0  0  0  0  0  0  0  0  0  0  0  0
    1.5000    0.0000    0.0000 C   0  0  0  0  0  0  0  0  0  0  0  0
    0.7500   -1.2990    0.0000 C   0  0  0  0  0  0  0  0  0  0  0  0
   -0.7500   -1.2990    0.0000 C   0  0  0  0  0  0  0  0  0  0  0  0
   -1.5000    0.0000    0.0000 C   0  0  0  0  0  0  0  0  0  0  0  0
   -0.7500    1.2990    0.0000 C   0  0  0  0  0  0  0  0  0  0  0  0
    0.7500    1.2990    0.0000 C   0  0  0  0  0  0  0  0  0  0  0  0
    5.2500   -1.2990    0.0000 C   0  0  0  0  0  0  0  0  0  0  0  0
    6.0000    0.0000    0.0000 O   0  0  0  0  0  0  0  0  0  0  0  0
    6.0000   -2.5981    0.0000 N   0  0  0  0  0  0  0  0  0  0  0  0
    7.5000   -2.5981    0.0000 C   0  0  0  0  0  0  0  0  0  0  0  0
    8.2500   -3.8971    0.0000 C   0  0  0  0  0  0  0  0  0  0  0  0
    9.7500   -3.8971    0.0000 C   0  0  0  0  0  0  0  0  0  0  0  0
   11.2500   -3.8971    0.0000 C   0  0  0  0  0  0  0  0  0  0  0  0
    8.2500   -1.2990    0.0000 C   0  0  0  0  0  0  0  0  0  0  0  0
    7.5000    0.0000    0.0000 O   0  0  0  0  0  0  0  0  0  0  0  0
    9.7500   -1.2990    0.0000 O   0  0  0  0  0  0  0  0  0  0  0  0
  1  2  1  0
  2  3  1  0
  3  4  1  0
  3  5  1  0
  1  6  1  0
  6  7  1  0
  7  8  2  0
  7  9  1  0
  9 10  1  0
 10 11  1  6
 11 12  1  0
 12 13  2  0
 13 14  1  0
 14 15  2  0
 15 16  1  0
 16 17  2  0
 10 18  1  0
 18 19  2  0
 18 20  1  0
 20 21  1  0
 21 22  1  6
 22 23  1  0
 23 24  3  0
 21 25  1  0
 25 26  2  0
 25 27  1  0
 17 12  1  0
M  END
$$$$

     RDKit          2D

 30 30  0  0  0  0  0  0  0  0999 V2000
    3.7500   -6.4952    0.0000 N   0  0  0  0  0  0  0  0  0  0  0  0
    3.0000   -7.7942    0.0000 C   0  0  0  0  0  0  0  0  0  0  0  0
    3.7500   -9.0933    0.0000 C   0  0  0  0  0  0  0  0  0  0  0  0
    3.0000  -10.3923    0.0000 C   0  0  0  0  0  0  0  0  0  0  0  0
    3.7500  -11.6913    0.0000 O   0  0  0  0  0  0  0  0  0  0  0  0
    3.0000  -12.9904    0.0000 C   0  0  0  0  0  0  0  0  0  0  0  0
    3.7500  -14.2894    0.0000 C   0  0  0  0  0  0  0  0  0  0  0  0
    1.5000  -12.9904    0.0000 C   0  0  0  0  0  0  0  0  0  0  0  0
    3.0000   -5.1962    0.0000 C   0  0  0  0  0  0  0  0  0  0  0  0
    3.7500   -3.8971    0.0000 C   0  0  0  0  0  0  0  0  0  0  0  0
    5.2500   -3.8971    0.0000 O   0  0  0  0  0  0  0  0  0  0  0  0
    3.0000   -2.5981    0.0000 N   0  0  0  0  0  0  0  0  0  0  0  0
    3.7500   -1.2990    0.0000 C   0  0  0  0  0  0  0  0  0  0  0  0
    3.0000    0.0000    0.0000 C   0  0  0  0  0  0  0  0  0  0  0  0
    1.5000    0.0000    0.0000 C   0  0  0  0  0  0  0  0  0  0  0  0
    0.7500   -1.2990    0.0000 C   0  0  0  0  0  0  0  0  0  0  0  0
   -0.7500   -1.2990    0.0000 C   0  0  0  0  0  0  0  0  0  0  0  0
   -1.5000    0.0000    0.0000 C   0  0  0  0  0  0  0  0  0  0  0  0
   -0.7500    1.2990    0.0000 C   0  0  0  0  0  0  0  0  0  0  0  0
    0.7500    1.2990    0.0000 C   0  0  0  0  0  0  0  0  0  0  0  0
    5.2500   -1.2990    0.0000 C   0  0  0  0  0  0  0  0  0  0  0  0
    6.0000    0.0000    0.0000 O   0  0  0  0  0  0  0  0  0  0  0  0
    6.0000   -2.5981    0.0000 N   0  0  0  0  0  0  0  0  0  0  0  0
    7.5000   -2.5981    0.0000 C   0  0  0  0  0  0  0  0  0  0  0  0
    8.2500   -3.8971    0.0000 C   0  0  0  0  0  0  0  0  0  0  0  0
    9.7500   -3.8971    0.0000 C   0  0  0  0  0  0  0  0  0  0  0  0
   11.2500   -3.8971    0.0000 C   0  0  0  0  0  0  0  0  0  0  0  0
    8.2500   -1.2990    0.0000 C   0  0  0  0  0  0  0  0  0  0  0  0
    7.5000    0.0000    0.0000 O   0  0  0  0  0  0  0  0  0  0  0  0
    9.7500   -1.2990    0.0000 O   0  0  0  0  0  0  0  0  0  0  0  0
  1  2  1  0
  2  3  1  0
  3  4  1  0
  4  5  1  0
  5  6  1  0
  6  7  1  0
  6  8  1  0
  1  9  1  0
  9 10  1  0
 10 11  2  0
 10 12  1  0
 12 13  1  0
 13 14  1  6
 14 15  1  0
 15 16  2  0
 16 17  1  0
 17 18  2  0
 18 19  1  0
 19 20  2  0
 13 21  1  0
 21 22  2  0
 21 23  1  0
 23 24  1  0
 24 25  1  6
 25 26  1  0
 26 27  3  0
 24 28  1  0
 28 29  2  0
 28 30  1  0
 20 15  1  0
M  END
$$$$

     RDKit          2D

 32 33  0  0  0  0  0  0  0  0999 V2000
    0.7500   -6.4952    0.0000 N   0  0  0  0  0  0  0  0  0  0  0  0
    1.5000   -5.1962    0.0000 C   0  0  0  0  0  0  0  0  0  0  0  0
    0.7500   -3.8971    0.0000 C   0  0  0  0  0  0  0  0  0  0  0  0
    1.5000   -2.5981    0.0000 O   0  0  0  0  0  0  0  0  0  0  0  0
    0.7500   -1.2990    0.0000 C   0  0  0  0  0  0  0  0  0  0  0  0
    1.5000    0.0000    0.0000 C   0  0  0  0  0  0  0  0  0  0  0  0
    0.7500    1.2990    0.0000 C   0  0  0  0  0  0  0  0  0  0  0  0
   -0.7500    1.2990    0.0000 C   0  0  0  0  0  0  0  0  0  0  0  0
   -1.5000    0.0000    0.0000 C   0  0  0  0  0  0  0  0  0  0  0  0
   -0.7500   -1.2990    0.0000 C   0  0  0  0  0  0  0  0  0  0  0  0
    1.5000   -7.7942    0.0000 C   0  0  0  0  0  0  0  0  0  0  0  0
    0.7500   -9.0933    0.0000 C   0  0  0  0  0  0  0  0  0  0  0  0
   -0.7500   -9.0933    0.0000 O   0  0  0  0  0  0  0  0  0  0  0  0
    1.5000  -10.3923    0.0000 N   0  0  0  0  0  0  0  0  0  0  0  0
    0.7500  -11.6913    0.0000 C   0  0  0  0  0  0  0  0  0  0  0  0
    1.5000  -12.9904    0.0000 C   0  0  0  0  0  0  0  0  0  0  0  0
    0.7500  -14.2894    0.0000 C   0  0  0  0  0  0  0  0  0  0  0  0
   -0.7500  -14.2894    0.0000 C   0  0  0  0  0  0  0  0  0  0  0  0
   -1.5000  -15.5885    0.0000 C   0  0  0  0  0  0  0  0  0  0  0  0
   -0.7500  -16.8875    0.0000 C   0  0  0  0  0  0  0  0  0  0  0  0
    0.7500  -16.8875    0.0000 C   0  0  0  0  0  0  0  0  0  0  0  0
    1.5000  -15.5885    0.0000 C   0  0  0  0  0  0  0  0  0  0  0  0
   -0.7500  -11.6913    0.0000 C   0  0  0  0  0  0  0  0  0  0  0  0
   -1.5000  -10.3923    0.0000 O   0  0  0  0  0  0  0  0  0  0  0  0
   -1.5000  -12.9904    0.0000 N   0  0  0  0  0  0  0  0  0  0  0  0
   -3.0000  -12.9904    0.0000 C   0  0  0  0  0  0  0  0  0  0  0  0
   -3.7500  -14.2894    0.0000 C   0  0  0  0  0  0  0  0  0  0  0  0
   -5.2500  -14.2894    0.0000 C   0  0  0  0  0  0  0  0  0  0  0  0
   -6.7500  -14.2894    0.0000 C   0  0  0  0  0  0  0  0  0  0  0  0
   -3.7500  -11.6913    0.0000 C   0  0  0  0  0  0  0  0  0  0  0  0
   -3.0000  -10.3923    0.0000 O   0  0  0  0  0  0  0  0  0  0  0  0
   -5.2500  -11.6913    0.0000 O   0  0  0  0  0  0  0  0  0  0  0  0
  1  2  1  0
  2  3  1  0
  3  4  1  0
  4  5  1  0
  5  6  2  0
  6  7  1  0
  7  8  2  0
  8  9  1  0
  9 10  2  0
  1 11  1  0
 11 12  1  0
 12 13  2  0
 12 14  1  0
 14 15  1  0
 15 16  1  6
 16 17  1  0
 17 18  2  0
 18 19  1  0
 19 20  2  0
 20 21  1  0
 21 22  2  0
 15 23  1  0
 23 24  2  0
 23 25  1  0
 25 26  1  0
 26 27  1  1
 27 28  1  0
 28 29  3  0
 26 30  1  0
 30 31  2  0
 30 32  1  0
 22 17  1  0
 10  5  1  0
M  END
$$$$

     RDKit          2D

 35 36  0  0  0  0  0  0  0  0999 V2000
    1.5000   -5.1962    0.0000 N   0  0  0  0  0  0  0  0  0  0  0  0
    0.7500   -3.8971    0.0000 C   0  0  0  0  0  0  0  0  0  0  0  0
    1.5000   -2.5981    0.0000 C   0  0  0  0  0  0  0  0  0  0  0  0
    0.7500   -1.2990    0.0000 C   0  0  0  0  0  0  0  0  0  0  0  0
    1.5000    0.0000    0.0000 C   0  0  0  0  0  0  0  0  0  0  0  0
    0.7500    1.2990    0.0000 C   0  0  0  0  0  0  0  0  0  0  0  0
   -0.7500    1.2990    0.0000 C   0  0  0  0  0  0  0  0  0  0  0  0
   -1.5000    0.0000    0.0000 C   0  0  0  0  0  0  0  0  0  0  0  0
   -3.0000    0.0000    0.0000 O   0  0  0  0  0  0  0  0  0  0  0  0
   -3.7500   -1.2990    0.0000 C   0  0  0  0  0  0  0  0  0  0  0  0
   -0.7500   -1.2990    0.0000 C   0  0  0  0  0  0  0  0  0  0  0  0
   -1.5000    2.5981    0.0000 O   0  0  0  0  0  0  0  0  0  0  0  0
   -0.7500    3.8971    0.0000 C   0  0  0  0  0  0  0  0  0  0  0  0
    0.7500   -6.4952    0.0000 C   0  0  0  0  0  0  0  0  0  0  0  0
    1.5000   -7.7942    0.0000 C   0  0  0  0  0  0  0  0  0  0  0  0
    3.0000   -7.7942    0.0000 O   0  0  0  0  0  0  0  0  0  0  0  0
    0.7500   -9.0933    0.0000 N   0  0  0  0  0  0  0  0  0  0  0  0
    1.5000  -10.3923    0.0000 C   0  0  0  0  0  0  0  0  0  0  0  0
    0.7500  -11.6913    0.0000 C   0  0  0  0  0  0  0  0  0  0  0  0
    1.5000  -12.9904    0.0000 C   0  0  0  0  0  0  0  0  0  0  0  0
    0.7500  -14.2894    0.0000 C   0  0  0  0  0  0  0  0  0  0  0  0
    1.5000  -15.5885    0.0000 C   0  0  0  0  0  0  0  0  0  0  0  0
    3.0000  -15.5885    0.0000 C   0  0  0  0  0  0  0  0  0  0  0  0
    3.7500  -14.2894    0.0000 C   0  0  0  0  0  0  0  0  0  0  0  0
    3.0000  -12.9904    0.0000 C   0  0  0  0  0  0  0  0  0  0  0  0
    3.0000  -10.3923    0.0000 C   0  0  0  0  0  0  0  0  0  0  0  0
    3.7500   -9.0933    0.0000 O   0  0  0  0  0  0  0  0  0  0  0  0
    3.7500  -11.6913    0.0000 N   0  0  0  0  0  0  0  0  0  0  0  0
    5.2500  -11.6913    0.0000 C   0  0  0  0  0  0  0  0  0  0  0  0
    6.0000  -12.9904    0.0000 C   0  0  0  0  0  0  0  0  0  0  0  0
    7.5000  -12.9904    0.0000 C   0  0  0  0  0  0  0  0  0  0  0  0
    9.0000  -12.9904    0.0000 C   0  0  0  0  0  0  0  0  0  0  0  0
    6.0000  -10.3923    0.0000 C   0  0  0  0  0  0  0  0  0  0  0  0
    5.2500   -9.0933    0.0000 O   0  0  0  0  0  0  0  0  0  0  0  0
    7.5000  -10.3923    0.0000 O   0  0  0  0  0  0  0  0  0  0  0  0
  1  2  1  0
  2  3  1  0
  3  4  1  0
  4  5  2  0
  5  6  1  0
  6  7  2  0
  7  8  1  0
  8  9  1  0
  9 10  1  0
  8 11  2  0
  7 12  1  0
 12 13  1  0
  1 14  1  0
 14 15  1  0
 15 16  2  0
 15 17  1  0
 17 18  1  0
 18 19  1  1
 19 20  1  0
 20 21  2  0
 21 22  1  0
 22 23  2  0
 23 24  1  0
 24 25  2  0
 18 26  1  0
 26 27  2  0
 26 28  1  0
 28 29  1  0
 29 30  1  6
 30 31  1  0
 31 32  3  0
 29 33  1  0
 33 34  2  0
 33 35  1  0
 25 20  1  0
 11  4  1  0
M  END
$$$$

     RDKit          2D

 42 43  0  0  0  0  0  0  0  0999 V2000
   -8.8235   -2.3769    0.0000 N   0  0  0  0  0  0  0  0  0  0  0  0
   -8.3600   -0.9503    0.0000 C   0  0  0  0  0  0  0  0  0  0  0  0
   -9.3637    0.1644    0.0000 C   0  0  0  0  0  0  0  0  0  0  0  0
  -10.8309   -0.1475    0.0000 C   0  0  0  0  0  0  0  0  0  0  0  0
  -11.8346    0.9672    0.0000 C   0  0  0  0  0  0  0  0  0  0  0  0
  -11.2944   -1.5741    0.0000 C   0  0  0  0  0  0  0  0  0  0  0  0
   -6.8928   -0.6385    0.0000 C   0  0  0  0  0  0  0  0  0  0  0  0
   -6.4292    0.7881    0.0000 O   0  0  0  0  0  0  0  0  0  0  0  0
   -5.8891   -1.7532    0.0000 N   0  0  0  0  0  0  0  0  0  0  0  0
   -4.4218   -1.4413    0.0000 C   0  0  0  0  0  0  0  0  0  0  0  0
   -3.9583   -0.0147    0.0000 C   0  0  0  0  0  0  0  0  0  0  0  0
   -2.4911    0.2971    0.0000 C   0  0  0  0  0  0  0  0  0  0  0  0
   -2.0276    1.7237    0.0000 C   0  0  0  0  0  0  0  0  0  0  0  0
   -1.4874   -0.8176    0.0000 C   0  0  0  0  0  0  0  0  0  0  0  0
   -3.4182   -2.5560    0.0000 C   0  0  0  0  0  0  0  0  0  0  0  0
   -1.9509   -2.2442    0.0000 O   0  0  0  0  0  0  0  0  0  0  0  0
   -3.8817   -3.9826    0.0000 N   0  0  0  0  0  0  0  0  0  0  0  0
   -5.3083   -4.4462    0.0000 C   0  0  0  0  0  0  0  0  0  0  0  0
   -5.3083   -5.9462    0.0000 C   0  0  0  0  0  0  0  0  0  0  0  0
   -3.8817   -6.4097    0.0000 C   0  0  0  0  0  0  0  0  0  0  0  0
   -3.0000   -5.1962    0.0000 C   0  0  0  0  0  0  0  0  0  0  0  0
   -1.5000   -5.1962    0.0000 C   0  0  0  0  0  0  0  0  0  0  0  0
   -0.7500   -6.4952    0.0000 O   0  0  0  0  0  0  0  0  0  0  0  0
   -0.7500   -3.8971    0.0000 N   0  0  0  0  0  0  0  0  0  0  0  0
    0.7500   -3.8971    0.0000 C   0  0  0  0  0  0  0  0  0  0  0  0
    1.5000   -2.5981    0.0000 C   0  0  0  0  0  0  0  0  0  0  0  0
    0.7500   -1.2990    0.0000 C   0  0  0  0  0  0  0  0  0  0  0  0
    1.5000    0.0000    0.0000 C   0  0  0  0  0  0  0  0  0  0  0  0
    0.7500    1.2990    0.0000 C   0  0  0  0  0  0  0  0  0  0  0  0
   -0.7500    1.2990    0.0000 C   0  0  0  0  0  0  0  0  0  0  0  0
   -1.5000    0.0000    0.0000 C   0  0  0  0  0  0  0  0  0  0  0  0
   -0.7500   -1.2990    0.0000 C   0  0  0  0  0  0  0  0  0  0  0  0
    1.5000   -5.1962    0.0000 C   0  0  0  0  0  0  0  0  0  0  0  0
    3.0000   -5.1962    0.0000 O   0  0  0  0  0  0  0  0  0  0  0  0
    0.7500   -6.4952    0.0000 N   0  0  0  0  0  0  0  0  0  0  0  0
    1.5000   -7.7942    0.0000 C   0  0  0  0  0  0  0  0  0  0  0  0
    0.7500   -9.0933    0.0000 C   0  0  0  0  0  0  0  0  0  0  0  0
    1.5000  -10.3923    0.0000 C   0  0  0  0  0  0  0  0  0  0  0  0
    2.2500  -11.6913    0.0000 C   0  0  0  0  0  0  0  0  0  0  0  0
    3.0000   -7.7942    0.0000 C   0  0  0  0  0  0  0  0  0  0  0  0
    3.7500   -6.4952    0.0000 O   0  0  0  0  0  0  0  0  0  0  0  0
    3.7500   -9.0933    0.0000 O   0  0  0  0  0  0  0  0  0  0  0  0
  2  1  1  1
  2  3  1  0
  3  4  1  0
  4  5  1  0
  4  6  1  0
  2  7  1  0
  7  8  2  0
  7  9  1  0
  9 10  1  0
 10 11  1  1
 11 12  1  0
 12 13  1  0
 12 14  1  0
 10 15  1  0
 15 16  2  0
 15 17  1  0
 17 18  1  0
 18 19  1  0
 19 20  1  0
 20 21  1  0
 21 22  1  6
 22 23  2  0
 22 24  1  0
 24 25  1  0
 25 26  1  6
 26 27  1  0
 27 28  2  0
 28 29  1  0
 29 30  2  0
 30 31  1  0
 31 32  2  0
 25 33  1  0
 33 34  2  0
 33 35  1  0
 35 36  1  0
 36 37  1  6
 37 38  1  0
 38 39  3  0
 36 40  1  0
 40 41  2  0
 40 42  1  0
 32 27  1  0
 21 17  1  0
M  END
$$$$

     RDKit          2D

 42 43  0  0  0  0  0  0  0  0999 V2000
   -8.8235   -2.3769    0.0000 N   0  0  0  0  0  0  0  0  0  0  0  0
   -8.3600   -0.9503    0.0000 C   0  0  0  0  0  0  0  0  0  0  0  0
   -9.3637    0.1644    0.0000 C   0  0  0  0  0  0  0  0  0  0  0  0
  -10.8309   -0.1475    0.0000 C   0  0  0  0  0  0  0  0  0  0  0  0
  -11.8346    0.9672    0.0000 C   0  0  0  0  0  0  0  0  0  0  0  0
  -11.2944   -1.5741    0.0000 C   0  0  0  0  0  0  0  0  0  0  0  0
   -6.8928   -0.6385    0.0000 C   0  0  0  0  0  0  0  0  0  0  0  0
   -6.4292    0.7881    0.0000 O   0  0  0  0  0  0  0  0  0  0  0  0
   -5.8891   -1.7532    0.0000 N   0  0  0  0  0  0  0  0  0  0  0  0
   -4.4218   -1.4413    0.0000 C   0  0  0  0  0  0  0  0  0  0  0  0
   -3.9583   -0.0147    0.0000 C   0  0  0  0  0  0  0  0  0  0  0  0
   -2.4911    0.2971    0.0000 C   0  0  0  0  0  0  0  0  0  0  0  0
   -2.0276    1.7237    0.0000 C   0  0  0  0  0  0  0  0  0  0  0  0
   -1.4874   -0.8176    0.0000 C   0  0  0  0  0  0  0  0  0  0  0  0
   -3.4182   -2.5560    0.0000 C   0  0  0  0  0  0  0  0  0  0  0  0
   -1.9509   -2.2442    0.0000 O   0  0  0  0  0  0  0  0  0  0  0  0
   -3.8817   -3.9826    0.0000 N   0  0  0  0  0  0  0  0  0  0  0  0
   -5.3083   -4.4462    0.0000 C   0  0  0  0  0  0  0  0  0  0  0  0
   -5.3083   -5.9462    0.0000 C   0  0  0  0  0  0  0  0  0  0  0  0
   -3.8817   -6.4097    0.0000 C   0  0  0  0  0  0  0  0  0  0  0  0
   -3.0000   -5.1962    0.0000 C   0  0  0  0  0  0  0  0  0  0  0  0
   -1.5000   -5.1962    0.0000 C   0  0  0  0  0  0  0  0  0  0  0  0
   -0.7500   -6.4952    0.0000 O   0  0  0  0  0  0  0  0  0  0  0  0
   -0.7500   -3.8971    0.0000 N   0  0  0  0  0  0  0  0  0  0  0  0
    0.7500   -3.8971    0.0000 C   0  0  0  0  0  0  0  0  0  0  0  0
    1.5000   -2.5981    0.0000 C   0  0  0  0  0  0  0  0  0  0  0  0
    0.7500   -1.2990    0.0000 C   0  0  0  0  0  0  0  0  0  0  0  0
    1.5000    0.0000    0.0000 C   0  0  0  0  0  0  0  0  0  0  0  0
    0.7500    1.2990    0.0000 C   0  0  0  0  0  0  0  0  0  0  0  0
   -0.7500    1.2990    0.0000 C   0  0  0  0  0  0  0  0  0  0  0  0
   -1.5000    0.0000    0.0000 C   0  0  0  0  0  0  0  0  0  0  0  0
   -0.7500   -1.2990    0.0000 C   0  0  0  0  0  0  0  0  0  0  0  0
    1.5000   -5.1962    0.0000 C   0  0  0  0  0  0  0  0  0  0  0  0
    3.0000   -5.1962    0.0000 O   0  0  0  0  0  0  0  0  0  0  0  0
    0.7500   -6.4952    0.0000 N   0  0  0  0  0  0  0  0  0  0  0  0
    1.5000   -7.7942    0.0000 C   0  0  0  0  0  0  0  0  0  0  0  0
    0.7500   -9.0933    0.0000 C   0  0  0  0  0  0  0  0  0  0  0  0
    1.5000  -10.3923    0.0000 C   0  0  0  0  0  0  0  0  0  0  0  0
    2.2500  -11.6913    0.0000 C   0  0  0  0  0  0  0  0  0  0  0  0
    3.0000   -7.7942    0.0000 C   0  0  0  0  0  0  0  0  0  0  0  0
    3.7500   -6.4952    0.0000 O   0  0  0  0  0  0  0  0  0  0  0  0
    3.7500   -9.0933    0.0000 O   0  0  0  0  0  0  0  0  0  0  0  0
  2  1  1  6
  2  3  1  0
  3  4  1  0
  4  5  1  0
  4  6  1  0
  2  7  1  0
  7  8  2  0
  7  9  1  0
  9 10  1  0
 10 11  1  1
 11 12  1  0
 12 13  1  0
 12 14  1  0
 10 15  1  0
 15 16  2  0
 15 17  1  0
 17 18  1  0
 18 19  1  0
 19 20  1  0
 20 21  1  0
 21 22  1  6
 22 23  2  0
 22 24  1  0
 24 25  1  0
 25 26  1  6
 26 27  1  0
 27 28  2  0
 28 29  1  0
 29 30  2  0
 30 31  1  0
 31 32  2  0
 25 33  1  0
 33 34  2  0
 33 35  1  0
 35 36  1  0
 36 37  1  6
 37 38  1  0
 38 39  3  0
 36 40  1  0
 40 41  2  0
 40 42  1  0
 32 27  1  0
 21 17  1  0
M  END
$$$$

     RDKit          2D

 43 44  0  0  0  0  0  0  0  0999 V2000
   -8.8235   -2.3769    0.0000 N   0  0  0  0  0  0  0  0  0  0  0  0
  -10.2907   -2.6888    0.0000 C   0  0  0  0  0  0  0  0  0  0  0  0
   -8.3600   -0.9503    0.0000 C   0  0  0  0  0  0  0  0  0  0  0  0
   -9.3637    0.1644    0.0000 C   0  0  0  0  0  0  0  0  0  0  0  0
  -10.8309   -0.1475    0.0000 C   0  0  0  0  0  0  0  0  0  0  0  0
  -11.8346    0.9672    0.0000 C   0  0  0  0  0  0  0  0  0  0  0  0
  -11.2944   -1.5741    0.0000 C   0  0  0  0  0  0  0  0  0  0  0  0
   -6.8928   -0.6385    0.0000 C   0  0  0  0  0  0  0  0  0  0  0  0
   -6.4292    0.7881    0.0000 O   0  0  0  0  0  0  0  0  0  0  0  0
   -5.8891   -1.7532    0.0000 N   0  0  0  0  0  0  0  0  0  0  0  0
   -4.4218   -1.4413    0.0000 C   0  0  0  0  0  0  0  0  0  0  0  0
   -3.9583   -0.0147    0.0000 C   0  0  0  0  0  0  0  0  0  0  0  0
   -2.4911    0.2971    0.0000 C   0  0  0  0  0  0  0  0  0  0  0  0
   -2.0276    1.7237    0.0000 C   0  0  0  0  0  0  0  0  0  0  0  0
   -1.4874   -0.8176    0.0000 C   0  0  0  0  0  0  0  0  0  0  0  0
   -3.4182   -2.5560    0.0000 C   0  0  0  0  0  0  0  0  0  0  0  0
   -1.9509   -2.2442    0.0000 O   0  0  0  0  0  0  0  0  0  0  0  0
   -3.8817   -3.9826    0.0000 N   0  0  0  0  0  0  0  0  0  0  0  0
   -5.3083   -4.4462    0.0000 C   0  0  0  0  0  0  0  0  0  0  0  0
   -5.3083   -5.9462    0.0000 C   0  0  0  0  0  0  0  0  0  0  0  0
   -3.8817   -6.4097    0.0000 C   0  0  0  0  0  0  0  0  0  0  0  0
   -3.0000   -5.1962    0.0000 C   0  0  0  0  0  0  0  0  0  0  0  0
   -1.5000   -5.1962    0.0000 C   0  0  0  0  0  0  0  0  0  0  0  0
   -0.7500   -6.4952    0.0000 O   0  0  0  0  0  0  0  0  0  0  0  0
   -0.7500   -3.8971    0.0000 N   0  0  0  0  0  0  0  0  0  0  0  0
    0.7500   -3.8971    0.0000 C   0  0  0  0  0  0  0  0  0  0  0  0
    1.5000   -2.5981    0.0000 C   0  0  0  0  0  0  0  0  0  0  0  0
    0.7500   -1.2990    0.0000 C   0  0  0  0  0  0  0  0  0  0  0  0
    1.5000    0.0000    0.0000 C   0  0  0  0  0  0  0  0  0  0  0  0
    0.7500    1.2990    0.0000 C   0  0  0  0  0  0  0  0  0  0  0  0
   -0.7500    1.2990    0.0000 C   0  0  0  0  0  0  0  0  0  0  0  0
   -1.5000    0.0000    0.0000 C   0  0  0  0  0  0  0  0  0  0  0  0
   -0.7500   -1.2990    0.0000 C   0  0  0  0  0  0  0  0  0  0  0  0
    1.5000   -5.1962    0.0000 C   0  0  0  0  0  0  0  0  0  0  0  0
    3.0000   -5.1962    0.0000 O   0  0  0  0  0  0  0  0  0  0  0  0
    0.7500   -6.4952    0.0000 N   0  0  0  0  0  0  0  0  0  0  0  0
    1.5000   -7.7942    0.0000 C   0  0  0  0  0  0  0  0  0  0  0  0
    0.7500   -9.0933    0.0000 C   0  0  0  0  0  0  0  0  0  0  0  0
    1.5000  -10.3923    0.0000 C   0  0  0  0  0  0  0  0  0  0  0  0
    2.2500  -11.6913    0.0000 C   0  0  0  0  0  0  0  0  0  0  0  0
    3.0000   -7.7942    0.0000 C   0  0  0  0  0  0  0  0  0  0  0  0
    3.7500   -6.4952    0.0000 O   0  0  0  0  0  0  0  0  0  0  0  0
    3.7500   -9.0933    0.0000 O   0  0  0  0  0  0  0  0  0  0  0  0
  1  2  1  0
  1  3  1  0
  3  4  1  1
  4  5  1  0
  5  6  1  0
  5  7  1  0
  3  8  1  0
  8  9  2  0
  8 10  1  0
 10 11  1  0
 11 12  1  1
 12 13  1  0
 13 14  1  0
 13 15  1  0
 11 16  1  0
 16 17  2  0
 16 18  1  0
 18 19  1  0
 19 20  1  0
 20 21  1  0
 21 22  1  0
 22 23  1  6
 23 24  2  0
 23 25  1  0
 25 26  1  0
 26 27  1  6
 27 28  1  0
 28 29  2  0
 29 30  1  0
 30 31  2  0
 31 32  1  0
 32 33  2  0
 26 34  1  0
 34 35  2  0
 34 36  1  0
 36 37  1  0
 37 38  1  6
 38 39  1  0
 39 40  3  0
 37 41  1  0
 41 42  2  0
 41 43  1  0
 33 28  1  0
 22 18  1  0
M  END
$$$$

     RDKit          2D

 43 44  0  0  0  0  0  0  0  0999 V2000
   -8.8235   -2.3769    0.0000 N   0  0  0  0  0  0  0  0  0  0  0  0
  -10.2907   -2.6888    0.0000 C   0  0  0  0  0  0  0  0  0  0  0  0
   -8.3600   -0.9503    0.0000 C   0  0  0  0  0  0  0  0  0  0  0  0
   -9.3637    0.1644    0.0000 C   0  0  0  0  0  0  0  0  0  0  0  0
  -10.8309   -0.1475    0.0000 C   0  0  0  0  0  0  0  0  0  0  0  0
  -11.8346    0.9672    0.0000 C   0  0  0  0  0  0  0  0  0  0  0  0
  -11.2944   -1.5741    0.0000 C   0  0  0  0  0  0  0  0  0  0  0  0
   -6.8928   -0.6385    0.0000 C   0  0  0  0  0  0  0  0  0  0  0  0
   -6.4292    0.7881    0.0000 O   0  0  0  0  0  0  0  0  0  0  0  0
   -5.8891   -1.7532    0.0000 N   0  0  0  0  0  0  0  0  0  0  0  0
   -4.4218   -1.4413    0.0000 C   0  0  0  0  0  0  0  0  0  0  0  0
   -3.9583   -0.0147    0.0000 C   0  0  0  0  0  0  0  0  0  0  0  0
   -2.4911    0.2971    0.0000 C   0  0  0  0  0  0  0  0  0  0  0  0
   -2.0276    1.7237    0.0000 C   0  0  0  0  0  0  0  0  0  0  0  0
   -1.4874   -0.8176    0.0000 C   0  0  0  0  0  0  0  0  0  0  0  0
   -3.4182   -2.5560    0.0000 C   0  0  0  0  0  0  0  0  0  0  0  0
   -1.9509   -2.2442    0.0000 O   0  0  0  0  0  0  0  0  0  0  0  0
   -3.8817   -3.9826    0.0000 N   0  0  0  0  0  0  0  0  0  0  0  0
   -5.3083   -4.4462    0.0000 C   0  0  0  0  0  0  0  0  0  0  0  0
   -5.3083   -5.9462    0.0000 C   0  0  0  0  0  0  0  0  0  0  0  0
   -3.8817   -6.4097    0.0000 C   0  0  0  0  0  0  0  0  0  0  0  0
   -3.0000   -5.1962    0.0000 C   0  0  0  0  0  0  0  0  0  0  0  0
   -1.5000   -5.1962    0.0000 C   0  0  0  0  0  0  0  0  0  0  0  0
   -0.7500   -6.4952    0.0000 O   0  0  0  0  0  0  0  0  0  0  0  0
   -0.7500   -3.8971    0.0000 N   0  0  0  0  0  0  0  0  0  0  0  0
    0.7500   -3.8971    0.0000 C   0  0  0  0  0  0  0  0  0  0  0  0
    1.5000   -2.5981    0.0000 C   0  0  0  0  0  0  0  0  0  0  0  0
    0.7500   -1.2990    0.0000 C   0  0  0  0  0  0  0  0  0  0  0  0
    1.5000    0.0000    0.0000 C   0  0  0  0  0  0  0  0  0  0  0  0
    0.7500    1.2990    0.0000 C   0  0  0  0  0  0  0  0  0  0  0  0
   -0.7500    1.2990    0.0000 C   0  0  0  0  0  0  0  0  0  0  0  0
   -1.5000    0.0000    0.0000 C   0  0  0  0  0  0  0  0  0  0  0  0
   -0.7500   -1.2990    0.0000 C   0  0  0  0  0  0  0  0  0  0  0  0
    1.5000   -5.1962    0.0000 C   0  0  0  0  0  0  0  0  0  0  0  0
    3.0000   -5.1962    0.0000 O   0  0  0  0  0  0  0  0  0  0  0  0
    0.7500   -6.4952    0.0000 N   0  0  0  0  0  0  0  0  0  0  0  0
    1.5000   -7.7942    0.0000 C   0  0  0  0  0  0  0  0  0  0  0  0
    0.7500   -9.0933    0.0000 C   0  0  0  0  0  0  0  0  0  0  0  0
    1.5000  -10.3923    0.0000 C   0  0  0  0  0  0  0  0  0  0  0  0
    2.2500  -11.6913    0.0000 C   0  0  0  0  0  0  0  0  0  0  0  0
    3.0000   -7.7942    0.0000 C   0  0  0  0  0  0  0  0  0  0  0  0
    3.7500   -6.4952    0.0000 O   0  0  0  0  0  0  0  0  0  0  0  0
    3.7500   -9.0933    0.0000 O   0  0  0  0  0  0  0  0  0  0  0  0
  1  2  1  0
  1  3  1  0
  3  4  1  6
  4  5  1  0
  5  6  1  0
  5  7  1  0
  3  8  1  0
  8  9  2  0
  8 10  1  0
 10 11  1  0
 11 12  1  1
 12 13  1  0
 13 14  1  0
 13 15  1  0
 11 16  1  0
 16 17  2  0
 16 18  1  0
 18 19  1  0
 19 20  1  0
 20 21  1  0
 21 22  1  0
 22 23  1  6
 23 24  2  0
 23 25  1  0
 25 26  1  0
 26 27  1  6
 27 28  1  0
 28 29  2  0
 29 30  1  0
 30 31  2  0
 31 32  1  0
 32 33  2  0
 26 34  1  0
 34 35  2  0
 34 36  1  0
 36 37  1  0
 37 38  1  6
 38 39  1  0
 39 40  3  0
 37 41  1  0
 41 42  2  0
 41 43  1  0
 33 28  1  0
 22 18  1  0
M  END
$$$$

     RDKit          2D

 42 43  0  0  0  0  0  0  0  0999 V2000
   -8.8235   -2.3769    0.0000 N   0  0  0  0  0  0  0  0  0  0  0  0
   -8.3600   -0.9503    0.0000 C   0  0  0  0  0  0  0  0  0  0  0  0
   -9.3637    0.1644    0.0000 C   0  0  0  0  0  0  0  0  0  0  0  0
  -10.8309   -0.1475    0.0000 C   0  0  0  0  0  0  0  0  0  0  0  0
  -11.8346    0.9672    0.0000 C   0  0  0  0  0  0  0  0  0  0  0  0
  -11.2944   -1.5741    0.0000 C   0  0  0  0  0  0  0  0  0  0  0  0
   -6.8928   -0.6385    0.0000 C   0  0  0  0  0  0  0  0  0  0  0  0
   -6.4292    0.7881    0.0000 O   0  0  0  0  0  0  0  0  0  0  0  0
   -5.8891   -1.7532    0.0000 N   0  0  0  0  0  0  0  0  0  0  0  0
   -4.4218   -1.4413    0.0000 C   0  0  0  0  0  0  0  0  0  0  0  0
   -3.9583   -0.0147    0.0000 C   0  0  0  0  0  0  0  0  0  0  0  0
   -2.4911    0.2971    0.0000 C   0  0  0  0  0  0  0  0  0  0  0  0
   -2.0276    1.7237    0.0000 C   0  0  0  0  0  0  0  0  0  0  0  0
   -1.4874   -0.8176    0.0000 C   0  0  0  0  0  0  0  0  0  0  0  0
   -3.4182   -2.5560    0.0000 C   0  0  0  0  0  0  0  0  0  0  0  0
   -1.9509   -2.2442    0.0000 O   0  0  0  0  0  0  0  0  0  0  0  0
   -3.8817   -3.9826    0.0000 N   0  0  0  0  0  0  0  0  0  0  0  0
   -5.3083   -4.4462    0.0000 C   0  0  0  0  0  0  0  0  0  0  0  0
   -5.3083   -5.9462    0.0000 C   0  0  0  0  0  0  0  0  0  0  0  0
   -3.8817   -6.4097    0.0000 C   0  0  0  0  0  0  0  0  0  0  0  0
   -3.0000   -5.1962    0.0000 C   0  0  0  0  0  0  0  0  0  0  0  0
   -1.5000   -5.1962    0.0000 C   0  0  0  0  0  0  0  0  0  0  0  0
   -0.7500   -6.4952    0.0000 O   0  0  0  0  0  0  0  0  0  0  0  0
   -0.7500   -3.8971    0.0000 N   0  0  0  0  0  0  0  0  0  0  0  0
    0.7500   -3.8971    0.0000 C   0  0  0  0  0  0  0  0  0  0  0  0
    1.5000   -2.5981    0.0000 C   0  0  0  0  0  0  0  0  0  0  0  0
    0.7500   -1.2990    0.0000 C   0  0  0  0  0  0  0  0  0  0  0  0
    1.5000    0.0000    0.0000 C   0  0  0  0  0  0  0  0  0  0  0  0
    0.7500    1.2990    0.0000 C   0  0  0  0  0  0  0  0  0  0  0  0
   -0.7500    1.2990    0.0000 C   0  0  0  0  0  0  0  0  0  0  0  0
   -1.5000    0.0000    0.0000 C   0  0  0  0  0  0  0  0  0  0  0  0
   -0.7500   -1.2990    0.0000 C   0  0  0  0  0  0  0  0  0  0  0  0
    1.5000   -5.1962    0.0000 C   0  0  0  0  0  0  0  0  0  0  0  0
    3.0000   -5.1962    0.0000 O   0  0  0  0  0  0  0  0  0  0  0  0
    0.7500   -6.4952    0.0000 N   0  0  0  0  0  0  0  0  0  0  0  0
    1.5000   -7.7942    0.0000 C   0  0  0  0  0  0  0  0  0  0  0  0
    0.7500   -9.0933    0.0000 C   0  0  0  0  0  0  0  0  0  0  0  0
    1.5000  -10.3923    0.0000 C   0  0  0  0  0  0  0  0  0  0  0  0
    2.2500  -11.6913    0.0000 C   0  0  0  0  0  0  0  0  0  0  0  0
    3.0000   -7.7942    0.0000 C   0  0  0  0  0  0  0  0  0  0  0  0
    3.7500   -6.4952    0.0000 O   0  0  0  0  0  0  0  0  0  0  0  0
    3.7500   -9.0933    0.0000 O   0  0  0  0  0  0  0  0  0  0  0  0
  2  1  1  1
  2  3  1  0
  3  4  1  0
  4  5  1  0
  4  6  1  0
  2  7  1  0
  7  8  2  0
  7  9  1  0
  9 10  1  0
 10 11  1  6
 11 12  1  0
 12 13  1  0
 12 14  1  0
 10 15  1  0
 15 16  2  0
 15 17  1  0
 17 18  1  0
 18 19  1  0
 19 20  1  0
 20 21  1  0
 21 22  1  6
 22 23  2  0
 22 24  1  0
 24 25  1  0
 25 26  1  6
 26 27  1  0
 27 28  2  0
 28 29  1  0
 29 30  2  0
 30 31  1  0
 31 32  2  0
 25 33  1  0
 33 34  2  0
 33 35  1  0
 35 36  1  0
 36 37  1  6
 37 38  1  0
 38 39  3  0
 36 40  1  0
 40 41  2  0
 40 42  1  0
 32 27  1  0
 21 17  1  0
M  END
$$$$

     RDKit          2D

 42 43  0  0  0  0  0  0  0  0999 V2000
   -8.8235   -2.3769    0.0000 N   0  0  0  0  0  0  0  0  0  0  0  0
   -8.3600   -0.9503    0.0000 C   0  0  0  0  0  0  0  0  0  0  0  0
   -9.3637    0.1644    0.0000 C   0  0  0  0  0  0  0  0  0  0  0  0
  -10.8309   -0.1475    0.0000 C   0  0  0  0  0  0  0  0  0  0  0  0
  -11.8346    0.9672    0.0000 C   0  0  0  0  0  0  0  0  0  0  0  0
  -11.2944   -1.5741    0.0000 C   0  0  0  0  0  0  0  0  0  0  0  0
   -6.8928   -0.6385    0.0000 C   0  0  0  0  0  0  0  0  0  0  0  0
   -6.4292    0.7881    0.0000 O   0  0  0  0  0  0  0  0  0  0  0  0
   -5.8891   -1.7532    0.0000 N   0  0  0  0  0  0  0  0  0  0  0  0
   -4.4218   -1.4413    0.0000 C   0  0  0  0  0  0  0  0  0  0  0  0
   -3.9583   -0.0147    0.0000 C   0  0  0  0  0  0  0  0  0  0  0  0
   -2.4911    0.2971    0.0000 C   0  0  0  0  0  0  0  0  0  0  0  0
   -2.0276    1.7237    0.0000 C   0  0  0  0  0  0  0  0  0  0  0  0
   -1.4874   -0.8176    0.0000 C   0  0  0  0  0  0  0  0  0  0  0  0
   -3.4182   -2.5560    0.0000 C   0  0  0  0  0  0  0  0  0  0  0  0
   -1.9509   -2.2442    0.0000 O   0  0  0  0  0  0  0  0  0  0  0  0
   -3.8817   -3.9826    0.0000 N   0  0  0  0  0  0  0  0  0  0  0  0
   -5.3083   -4.4462    0.0000 C   0  0  0  0  0  0  0  0  0  0  0  0
   -5.3083   -5.9462    0.0000 C   0  0  0  0  0  0  0  0  0  0  0  0
   -3.8817   -6.4097    0.0000 C   0  0  0  0  0  0  0  0  0  0  0  0
   -3.0000   -5.1962    0.0000 C   0  0  0  0  0  0  0  0  0  0  0  0
   -1.5000   -5.1962    0.0000 C   0  0  0  0  0  0  0  0  0  0  0  0
   -0.7500   -6.4952    0.0000 O   0  0  0  0  0  0  0  0  0  0  0  0
   -0.7500   -3.8971    0.0000 N   0  0  0  0  0  0  0  0  0  0  0  0
    0.7500   -3.8971    0.0000 C   0  0  0  0  0  0  0  0  0  0  0  0
    1.5000   -2.5981    0.0000 C   0  0  0  0  0  0  0  0  0  0  0  0
    0.7500   -1.2990    0.0000 C   0  0  0  0  0  0  0  0  0  0  0  0
    1.5000    0.0000    0.0000 C   0  0  0  0  0  0  0  0  0  0  0  0
    0.7500    1.2990    0.0000 C   0  0  0  0  0  0  0  0  0  0  0  0
   -0.7500    1.2990    0.0000 C   0  0  0  0  0  0  0  0  0  0  0  0
   -1.5000    0.0000    0.0000 C   0  0  0  0  0  0  0  0  0  0  0  0
   -0.7500   -1.2990    0.0000 C   0  0  0  0  0  0  0  0  0  0  0  0
    1.5000   -5.1962    0.0000 C   0  0  0  0  0  0  0  0  0  0  0  0
    3.0000   -5.1962    0.0000 O   0  0  0  0  0  0  0  0  0  0  0  0
    0.7500   -6.4952    0.0000 N   0  0  0  0  0  0  0  0  0  0  0  0
    1.5000   -7.7942    0.0000 C   0  0  0  0  0  0  0  0  0  0  0  0
    0.7500   -9.0933    0.0000 C   0  0  0  0  0  0  0  0  0  0  0  0
    1.5000  -10.3923    0.0000 C   0  0  0  0  0  0  0  0  0  0  0  0
    2.2500  -11.6913    0.0000 C   0  0  0  0  0  0  0  0  0  0  0  0
    3.0000   -7.7942    0.0000 C   0  0  0  0  0  0  0  0  0  0  0  0
    3.7500   -6.4952    0.0000 O   0  0  0  0  0  0  0  0  0  0  0  0
    3.7500   -9.0933    0.0000 O   0  0  0  0  0  0  0  0  0  0  0  0
  2  1  1  6
  2  3  1  0
  3  4  1  0
  4  5  1  0
  4  6  1  0
  2  7  1  0
  7  8  2  0
  7  9  1  0
  9 10  1  0
 10 11  1  6
 11 12  1  0
 12 13  1  0
 12 14  1  0
 10 15  1  0
 15 16  2  0
 15 17  1  0
 17 18  1  0
 18 19  1  0
 19 20  1  0
 20 21  1  0
 21 22  1  6
 22 23  2  0
 22 24  1  0
 24 25  1  0
 25 26  1  6
 26 27  1  0
 27 28  2  0
 28 29  1  0
 29 30  2  0
 30 31  1  0
 31 32  2  0
 25 33  1  0
 33 34  2  0
 33 35  1  0
 35 36  1  0
 36 37  1  6
 37 38  1  0
 38 39  3  0
 36 40  1  0
 40 41  2  0
 40 42  1  0
 32 27  1  0
 21 17  1  0
M  END
$$$$

     RDKit          2D

 43 44  0  0  0  0  0  0  0  0999 V2000
   -8.8235   -2.3769    0.0000 N   0  0  0  0  0  0  0  0  0  0  0  0
  -10.2907   -2.6888    0.0000 C   0  0  0  0  0  0  0  0  0  0  0  0
   -8.3600   -0.9503    0.0000 C   0  0  0  0  0  0  0  0  0  0  0  0
   -9.3637    0.1644    0.0000 C   0  0  0  0  0  0  0  0  0  0  0  0
  -10.8309   -0.1475    0.0000 C   0  0  0  0  0  0  0  0  0  0  0  0
  -11.8346    0.9672    0.0000 C   0  0  0  0  0  0  0  0  0  0  0  0
  -11.2944   -1.5741    0.0000 C   0  0  0  0  0  0  0  0  0  0  0  0
   -6.8928   -0.6385    0.0000 C   0  0  0  0  0  0  0  0  0  0  0  0
   -6.4292    0.7881    0.0000 O   0  0  0  0  0  0  0  0  0  0  0  0
   -5.8891   -1.7532    0.0000 N   0  0  0  0  0  0  0  0  0  0  0  0
   -4.4218   -1.4413    0.0000 C   0  0  0  0  0  0  0  0  0  0  0  0
   -3.9583   -0.0147    0.0000 C   0  0  0  0  0  0  0  0  0  0  0  0
   -2.4911    0.2971    0.0000 C   0  0  0  0  0  0  0  0  0  0  0  0
   -2.0276    1.7237    0.0000 C   0  0  0  0  0  0  0  0  0  0  0  0
   -1.4874   -0.8176    0.0000 C   0  0  0  0  0  0  0  0  0  0  0  0
   -3.4182   -2.5560    0.0000 C   0  0  0  0  0  0  0  0  0  0  0  0
   -1.9509   -2.2442    0.0000 O   0  0  0  0  0  0  0  0  0  0  0  0
   -3.8817   -3.9826    0.0000 N   0  0  0  0  0  0  0  0  0  0  0  0
   -5.3083   -4.4462    0.0000 C   0  0  0  0  0  0  0  0  0  0  0  0
   -5.3083   -5.9462    0.0000 C   0  0  0  0  0  0  0  0  0  0  0  0
   -3.8817   -6.4097    0.0000 C   0  0  0  0  0  0  0  0  0  0  0  0
   -3.0000   -5.1962    0.0000 C   0  0  0  0  0  0  0  0  0  0  0  0
   -1.5000   -5.1962    0.0000 C   0  0  0  0  0  0  0  0  0  0  0  0
   -0.7500   -6.4952    0.0000 O   0  0  0  0  0  0  0  0  0  0  0  0
   -0.7500   -3.8971    0.0000 N   0  0  0  0  0  0  0  0  0  0  0  0
    0.7500   -3.8971    0.0000 C   0  0  0  0  0  0  0  0  0  0  0  0
    1.5000   -2.5981    0.0000 C   0  0  0  0  0  0  0  0  0  0  0  0
    0.7500   -1.2990    0.0000 C   0  0  0  0  0  0  0  0  0  0  0  0
    1.5000    0.0000    0.0000 C   0  0  0  0  0  0  0  0  0  0  0  0
    0.7500    1.2990    0.0000 C   0  0  0  0  0  0  0  0  0  0  0  0
   -0.7500    1.2990    0.0000 C   0  0  0  0  0  0  0  0  0  0  0  0
   -1.5000    0.0000    0.0000 C   0  0  0  0  0  0  0  0  0  0  0  0
   -0.7500   -1.2990    0.0000 C   0  0  0  0  0  0  0  0  0  0  0  0
    1.5000   -5.1962    0.0000 C   0  0  0  0  0  0  0  0  0  0  0  0
    3.0000   -5.1962    0.0000 O   0  0  0  0  0  0  0  0  0  0  0  0
    0.7500   -6.4952    0.0000 N   0  0  0  0  0  0  0  0  0  0  0  0
    1.5000   -7.7942    0.0000 C   0  0  0  0  0  0  0  0  0  0  0  0
    0.7500   -9.0933    0.0000 C   0  0  0  0  0  0  0  0  0  0  0  0
    1.5000  -10.3923    0.0000 C   0  0  0  0  0  0  0  0  0  0  0  0
    2.2500  -11.6913    0.0000 C   0  0  0  0  0  0  0  0  0  0  0  0
    3.0000   -7.7942    0.0000 C   0  0  0  0  0  0  0  0  0  0  0  0
    3.7500   -6.4952    0.0000 O   0  0  0  0  0  0  0  0  0  0  0  0
    3.7500   -9.0933    0.0000 O   0  0  0  0  0  0  0  0  0  0  0  0
  1  2  1  0
  1  3  1  0
  3  4  1  1
  4  5  1  0
  5  6  1  0
  5  7  1  0
  3  8  1  0
  8  9  2  0
  8 10  1  0
 10 11  1  0
 11 12  1  6
 12 13  1  0
 13 14  1  0
 13 15  1  0
 11 16  1  0
 16 17  2  0
 16 18  1  0
 18 19  1  0
 19 20  1  0
 20 21  1  0
 21 22  1  0
 22 23  1  6
 23 24  2  0
 23 25  1  0
 25 26  1  0
 26 27  1  6
 27 28  1  0
 28 29  2  0
 29 30  1  0
 30 31  2  0
 31 32  1  0
 32 33  2  0
 26 34  1  0
 34 35  2  0
 34 36  1  0
 36 37  1  0
 37 38  1  6
 38 39  1  0
 39 40  3  0
 37 41  1  0
 41 42  2  0
 41 43  1  0
 33 28  1  0
 22 18  1  0
M  END
$$$$

     RDKit          2D

 43 44  0  0  0  0  0  0  0  0999 V2000
   -8.8235   -2.3769    0.0000 N   0  0  0  0  0  0  0  0  0  0  0  0
  -10.2907   -2.6888    0.0000 C   0  0  0  0  0  0  0  0  0  0  0  0
   -8.3600   -0.9503    0.0000 C   0  0  0  0  0  0  0  0  0  0  0  0
   -9.3637    0.1644    0.0000 C   0  0  0  0  0  0  0  0  0  0  0  0
  -10.8309   -0.1475    0.0000 C   0  0  0  0  0  0  0  0  0  0  0  0
  -11.8346    0.9672    0.0000 C   0  0  0  0  0  0  0  0  0  0  0  0
  -11.2944   -1.5741    0.0000 C   0  0  0  0  0  0  0  0  0  0  0  0
   -6.8928   -0.6385    0.0000 C   0  0  0  0  0  0  0  0  0  0  0  0
   -6.4292    0.7881    0.0000 O   0  0  0  0  0  0  0  0  0  0  0  0
   -5.8891   -1.7532    0.0000 N   0  0  0  0  0  0  0  0  0  0  0  0
   -4.4218   -1.4413    0.0000 C   0  0  0  0  0  0  0  0  0  0  0  0
   -3.9583   -0.0147    0.0000 C   0  0  0  0  0  0  0  0  0  0  0  0
   -2.4911    0.2971    0.0000 C   0  0  0  0  0  0  0  0  0  0  0  0
   -2.0276    1.7237    0.0000 C   0  0  0  0  0  0  0  0  0  0  0  0
   -1.4874   -0.8176    0.0000 C   0  0  0  0  0  0  0  0  0  0  0  0
   -3.4182   -2.5560    0.0000 C   0  0  0  0  0  0  0  0  0  0  0  0
   -1.9509   -2.2442    0.0000 O   0  0  0  0  0  0  0  0  0  0  0  0
   -3.8817   -3.9826    0.0000 N   0  0  0  0  0  0  0  0  0  0  0  0
   -5.3083   -4.4462    0.0000 C   0  0  0  0  0  0  0  0  0  0  0  0
   -5.3083   -5.9462    0.0000 C   0  0  0  0  0  0  0  0  0  0  0  0
   -3.8817   -6.4097    0.0000 C   0  0  0  0  0  0  0  0  0  0  0  0
   -3.0000   -5.1962    0.0000 C   0  0  0  0  0  0  0  0  0  0  0  0
   -1.5000   -5.1962    0.0000 C   0  0  0  0  0  0  0  0  0  0  0  0
   -0.7500   -6.4952    0.0000 O   0  0  0  0  0  0  0  0  0  0  0  0
   -0.7500   -3.8971    0.0000 N   0  0  0  0  0  0  0  0  0  0  0  0
    0.7500   -3.8971    0.0000 C   0  0  0  0  0  0  0  0  0  0  0  0
    1.5000   -2.5981    0.0000 C   0  0  0  0  0  0  0  0  0  0  0  0
    0.7500   -1.2990    0.0000 C   0  0  0  0  0  0  0  0  0  0  0  0
    1.5000    0.0000    0.0000 C   0  0  0  0  0  0  0  0  0  0  0  0
    0.7500    1.2990    0.0000 C   0  0  0  0  0  0  0  0  0  0  0  0
   -0.7500    1.2990    0.0000 C   0  0  0  0  0  0  0  0  0  0  0  0
   -1.5000    0.0000    0.0000 C   0  0  0  0  0  0  0  0  0  0  0  0
   -0.7500   -1.2990    0.0000 C   0  0  0  0  0  0  0  0  0  0  0  0
    1.5000   -5.1962    0.0000 C   0  0  0  0  0  0  0  0  0  0  0  0
    3.0000   -5.1962    0.0000 O   0  0  0  0  0  0  0  0  0  0  0  0
    0.7500   -6.4952    0.0000 N   0  0  0  0  0  0  0  0  0  0  0  0
    1.5000   -7.7942    0.0000 C   0  0  0  0  0  0  0  0  0  0  0  0
    0.7500   -9.0933    0.0000 C   0  0  0  0  0  0  0  0  0  0  0  0
    1.5000  -10.3923    0.0000 C   0  0  0  0  0  0  0  0  0  0  0  0
    2.2500  -11.6913    0.0000 C   0  0  0  0  0  0  0  0  0  0  0  0
    3.0000   -7.7942    0.0000 C   0  0  0  0  0  0  0  0  0  0  0  0
    3.7500   -6.4952    0.0000 O   0  0  0  0  0  0  0  0  0  0  0  0
    3.7500   -9.0933    0.0000 O   0  0  0  0  0  0  0  0  0  0  0  0
  1  2  1  0
  1  3  1  0
  3  4  1  6
  4  5  1  0
  5  6  1  0
  5  7  1  0
  3  8  1  0
  8  9  2  0
  8 10  1  0
 10 11  1  0
 11 12  1  6
 12 13  1  0
 13 14  1  0
 13 15  1  0
 11 16  1  0
 16 17  2  0
 16 18  1  0
 18 19  1  0
 19 20  1  0
 20 21  1  0
 21 22  1  0
 22 23  1  6
 23 24  2  0
 23 25  1  0
 25 26  1  0
 26 27  1  6
 27 28  1  0
 28 29  2  0
 29 30  1  0
 30 31  2  0
 31 32  1  0
 32 33  2  0
 26 34  1  0
 34 35  2  0
 34 36  1  0
 36 37  1  0
 37 38  1  6
 38 39  1  0
 39 40  3  0
 37 41  1  0
 41 42  2  0
 41 43  1  0
 33 28  1  0
 22 18  1  0
M  END
$$$$

     RDKit          2D

 43 44  0  0  0  0  0  0  0  0999 V2000
   -3.0313    2.8384    0.0000 N   0  0  0  0  0  0  0  0  0  0  0  0
   -2.0276    1.7237    0.0000 C   0  0  0  0  0  0  0  0  0  0  0  0
   -0.5604    2.0356    0.0000 C   0  0  0  0  0  0  0  0  0  0  0  0
   -0.0968    3.4622    0.0000 C   0  0  0  0  0  0  0  0  0  0  0  0
    1.3704    3.7740    0.0000 C   0  0  0  0  0  0  0  0  0  0  0  0
   -1.1005    4.5769    0.0000 C   0  0  0  0  0  0  0  0  0  0  0  0
   -2.4911    0.2971    0.0000 C   0  0  0  0  0  0  0  0  0  0  0  0
   -1.4874   -0.8176    0.0000 O   0  0  0  0  0  0  0  0  0  0  0  0
   -3.9583   -0.0147    0.0000 N   0  0  0  0  0  0  0  0  0  0  0  0
   -4.9620    1.1000    0.0000 C   0  0  0  0  0  0  0  0  0  0  0  0
   -4.4218   -1.4413    0.0000 C   0  0  0  0  0  0  0  0  0  0  0  0
   -5.8891   -1.7532    0.0000 C   0  0  0  0  0  0  0  0  0  0  0  0
   -6.8928   -0.6385    0.0000 C   0  0  0  0  0  0  0  0  0  0  0  0
   -8.3600   -0.9503    0.0000 C   0  0  0  0  0  0  0  0  0  0  0  0
   -6.4292    0.7881    0.0000 C   0  0  0  0  0  0  0  0  0  0  0  0
   -3.4182   -2.5560    0.0000 C   0  0  0  0  0  0  0  0  0  0  0  0
   -1.9509   -2.2442    0.0000 O   0  0  0  0  0  0  0  0  0  0  0  0
   -3.8817   -3.9826    0.0000 N   0  0  0  0  0  0  0  0  0  0  0  0
   -5.3083   -4.4462    0.0000 C   0  0  0  0  0  0  0  0  0  0  0  0
   -5.3083   -5.9462    0.0000 C   0  0  0  0  0  0  0  0  0  0  0  0
   -3.8817   -6.4097    0.0000 C   0  0  0  0  0  0  0  0  0  0  0  0
   -3.0000   -5.1962    0.0000 C   0  0  0  0  0  0  0  0  0  0  0  0
   -1.5000   -5.1962    0.0000 C   0  0  0  0  0  0  0  0  0  0  0  0
   -0.7500   -6.4952    0.0000 O   0  0  0  0  0  0  0  0  0  0  0  0
   -0.7500   -3.8971    0.0000 N   0  0  0  0  0  0  0  0  0  0  0  0
    0.7500   -3.8971    0.0000 C   0  0  0  0  0  0  0  0  0  0  0  0
    1.5000   -2.5981    0.0000 C   0  0  0  0  0  0  0  0  0  0  0  0
    0.7500   -1.2990    0.0000 C   0  0  0  0  0  0  0  0  0  0  0  0
    1.5000    0.0000    0.0000 C   0  0  0  0  0  0  0  0  0  0  0  0
    0.7500    1.2990    0.0000 C   0  0  0  0  0  0  0  0  0  0  0  0
   -0.7500    1.2990    0.0000 C   0  0  0  0  0  0  0  0  0  0  0  0
   -1.5000    0.0000    0.0000 C   0  0  0  0  0  0  0  0  0  0  0  0
   -0.7500   -1.2990    0.0000 C   0  0  0  0  0  0  0  0  0  0  0  0
    1.5000   -5.1962    0.0000 C   0  0  0  0  0  0  0  0  0  0  0  0
    3.0000   -5.1962    0.0000 O   0  0  0  0  0  0  0  0  0  0  0  0
    0.7500   -6.4952    0.0000 N   0  0  0  0  0  0  0  0  0  0  0  0
    1.5000   -7.7942    0.0000 C   0  0  0  0  0  0  0  0  0  0  0  0
    0.7500   -9.0933    0.0000 C   0  0  0  0  0  0  0  0  0  0  0  0
    1.5000  -10.3923    0.0000 C   0  0  0  0  0  0  0  0  0  0  0  0
    2.2500  -11.6913    0.0000 C   0  0  0  0  0  0  0  0  0  0  0  0
    3.0000   -7.7942    0.0000 C   0  0  0  0  0  0  0  0  0  0  0  0
    3.7500   -6.4952    0.0000 O   0  0  0  0  0  0  0  0  0  0  0  0
    3.7500   -9.0933    0.0000 O   0  0  0  0  0  0  0  0  0  0  0  0
  2  1  1  1
  2  3  1  0
  3  4  1  0
  4  5  1  0
  4  6  1  0
  2  7  1  0
  7  8  2  0
  7  9  1  0
  9 10  1  0
  9 11  1  0
 11 12  1  6
 12 13  1  0
 13 14  1  0
 13 15  1  0
 11 16  1  0
 16 17  2  0
 16 18  1  0
 18 19  1  0
 19 20  1  0
 20 21  1  0
 21 22  1  0
 22 23  1  6
 23 24  2  0
 23 25  1  0
 25 26  1  0
 26 27  1  6
 27 28  1  0
 28 29  2  0
 29 30  1  0
 30 31  2  0
 31 32  1  0
 32 33  2  0
 26 34  1  0
 34 35  2  0
 34 36  1  0
 36 37  1  0
 37 38  1  6
 38 39  1  0
 39 40  3  0
 37 41  1  0
 41 42  2  0
 41 43  1  0
 33 28  1  0
 22 18  1  0
M  END
$$$$

     RDKit          2D

 43 44  0  0  0  0  0  0  0  0999 V2000
   -3.0313    2.8384    0.0000 N   0  0  0  0  0  0  0  0  0  0  0  0
   -2.0276    1.7237    0.0000 C   0  0  0  0  0  0  0  0  0  0  0  0
   -0.5604    2.0356    0.0000 C   0  0  0  0  0  0  0  0  0  0  0  0
   -0.0968    3.4622    0.0000 C   0  0  0  0  0  0  0  0  0  0  0  0
    1.3704    3.7740    0.0000 C   0  0  0  0  0  0  0  0  0  0  0  0
   -1.1005    4.5769    0.0000 C   0  0  0  0  0  0  0  0  0  0  0  0
   -2.4911    0.2971    0.0000 C   0  0  0  0  0  0  0  0  0  0  0  0
   -1.4874   -0.8176    0.0000 O   0  0  0  0  0  0  0  0  0  0  0  0
   -3.9583   -0.0147    0.0000 N   0  0  0  0  0  0  0  0  0  0  0  0
   -4.9620    1.1000    0.0000 C   0  0  0  0  0  0  0  0  0  0  0  0
   -4.4218   -1.4413    0.0000 C   0  0  0  0  0  0  0  0  0  0  0  0
   -5.8891   -1.7532    0.0000 C   0  0  0  0  0  0  0  0  0  0  0  0
   -6.8928   -0.6385    0.0000 C   0  0  0  0  0  0  0  0  0  0  0  0
   -8.3600   -0.9503    0.0000 C   0  0  0  0  0  0  0  0  0  0  0  0
   -6.4292    0.7881    0.0000 C   0  0  0  0  0  0  0  0  0  0  0  0
   -3.4182   -2.5560    0.0000 C   0  0  0  0  0  0  0  0  0  0  0  0
   -1.9509   -2.2442    0.0000 O   0  0  0  0  0  0  0  0  0  0  0  0
   -3.8817   -3.9826    0.0000 N   0  0  0  0  0  0  0  0  0  0  0  0
   -5.3083   -4.4462    0.0000 C   0  0  0  0  0  0  0  0  0  0  0  0
   -5.3083   -5.9462    0.0000 C   0  0  0  0  0  0  0  0  0  0  0  0
   -3.8817   -6.4097    0.0000 C   0  0  0  0  0  0  0  0  0  0  0  0
   -3.0000   -5.1962    0.0000 C   0  0  0  0  0  0  0  0  0  0  0  0
   -1.5000   -5.1962    0.0000 C   0  0  0  0  0  0  0  0  0  0  0  0
   -0.7500   -6.4952    0.0000 O   0  0  0  0  0  0  0  0  0  0  0  0
   -0.7500   -3.8971    0.0000 N   0  0  0  0  0  0  0  0  0  0  0  0
    0.7500   -3.8971    0.0000 C   0  0  0  0  0  0  0  0  0  0  0  0
    1.5000   -2.5981    0.0000 C   0  0  0  0  0  0  0  0  0  0  0  0
    0.7500   -1.2990    0.0000 C   0  0  0  0  0  0  0  0  0  0  0  0
    1.5000    0.0000    0.0000 C   0  0  0  0  0  0  0  0  0  0  0  0
    0.7500    1.2990    0.0000 C   0  0  0  0  0  0  0  0  0  0  0  0
   -0.7500    1.2990    0.0000 C   0  0  0  0  0  0  0  0  0  0  0  0
   -1.5000    0.0000    0.0000 C   0  0  0  0  0  0  0  0  0  0  0  0
   -0.7500   -1.2990    0.0000 C   0  0  0  0  0  0  0  0  0  0  0  0
    1.5000   -5.1962    0.0000 C   0  0  0  0  0  0  0  0  0  0  0  0
    3.0000   -5.1962    0.0000 O   0  0  0  0  0  0  0  0  0  0  0  0
    0.7500   -6.4952    0.0000 N   0  0  0  0  0  0  0  0  0  0  0  0
    1.5000   -7.7942    0.0000 C   0  0  0  0  0  0  0  0  0  0  0  0
    0.7500   -9.0933    0.0000 C   0  0  0  0  0  0  0  0  0  0  0  0
    1.5000  -10.3923    0.0000 C   0  0  0  0  0  0  0  0  0  0  0  0
    2.2500  -11.6913    0.0000 C   0  0  0  0  0  0  0  0  0  0  0  0
    3.0000   -7.7942    0.0000 C   0  0  0  0  0  0  0  0  0  0  0  0
    3.7500   -6.4952    0.0000 O   0  0  0  0  0  0  0  0  0  0  0  0
    3.7500   -9.0933    0.0000 O   0  0  0  0  0  0  0  0  0  0  0  0
  2  1  1  6
  2  3  1  0
  3  4  1  0
  4  5  1  0
  4  6  1  0
  2  7  1  0
  7  8  2  0
  7  9  1  0
  9 10  1  0
  9 11  1  0
 11 12  1  6
 12 13  1  0
 13 14  1  0
 13 15  1  0
 11 16  1  0
 16 17  2  0
 16 18  1  0
 18 19  1  0
 19 20  1  0
 20 21  1  0
 21 22  1  0
 22 23  1  6
 23 24  2  0
 23 25  1  0
 25 26  1  0
 26 27  1  6
 27 28  1  0
 28 29  2  0
 29 30  1  0
 30 31  2  0
 31 32  1  0
 32 33  2  0
 26 34  1  0
 34 35  2  0
 34 36  1  0
 36 37  1  0
 37 38  1  6
 38 39  1  0
 39 40  3  0
 37 41  1  0
 41 42  2  0
 41 43  1  0
 33 28  1  0
 22 18  1  0
M  END
$$$$

     RDKit          2D

 28 28  0  0  0  0  0  0  0  0999 V2000
    1.5000   -5.1962    0.0000 N   0  0  0  0  0  0  0  0  0  0  0  0
    0.7500   -3.8971    0.0000 C   0  0  0  0  0  0  0  0  0  0  0  0
   -0.7500   -3.8971    0.0000 C   0  0  0  0  0  0  0  0  0  0  0  0
   -1.5000   -5.1962    0.0000 C   0  0  0  0  0  0  0  0  0  0  0  0
   -3.0000   -5.1962    0.0000 C   0  0  0  0  0  0  0  0  0  0  0  0
   -0.7500   -6.4952    0.0000 C   0  0  0  0  0  0  0  0  0  0  0  0
    1.5000   -2.5981    0.0000 C   0  0  0  0  0  0  0  0  0  0  0  0
    0.7500   -1.2990    0.0000 O   0  0  0  0  0  0  0  0  0  0  0  0
    3.0000   -2.5981    0.0000 N   0  0  0  0  0  0  0  0  0  0  0  0
    3.7500   -3.8971    0.0000 C   0  0  0  0  0  0  0  0  0  0  0  0
    3.7500   -1.2990    0.0000 C   0  0  0  0  0  0  0  0  0  0  0  0
    3.0000    0.0000    0.0000 C   0  0  0  0  0  0  0  0  0  0  0  0
    3.7500    1.2990    0.0000 C   0  0  0  0  0  0  0  0  0  0  0  0
    3.0000    2.5981    0.0000 C   0  0  0  0  0  0  0  0  0  0  0  0
    3.7500    3.8971    0.0000 C   0  0  0  0  0  0  0  0  0  0  0  0
    5.2500    3.8971    0.0000 C   0  0  0  0  0  0  0  0  0  0  0  0
    6.0000    2.5981    0.0000 C   0  0  0  0  0  0  0  0  0  0  0  0
    5.2500    1.2990    0.0000 C   0  0  0  0  0  0  0  0  0  0  0  0
    5.2500   -1.2990    0.0000 C   0  0  0  0  0  0  0  0  0  0  0  0
    6.0000    0.0000    0.0000 O   0  0  0  0  0  0  0  0  0  0  0  0
    6.0000   -2.5981    0.0000 N   0  0  0  0  0  0  0  0  0  0  0  0
    7.5000   -2.5981    0.0000 C   0  0  0  0  0  0  0  0  0  0  0  0
    8.2500   -3.8971    0.0000 C   0  0  0  0  0  0  0  0  0  0  0  0
    9.7500   -3.8971    0.0000 C   0  0  0  0  0  0  0  0  0  0  0  0
   11.2500   -3.8971    0.0000 C   0  0  0  0  0  0  0  0  0  0  0  0
    8.2500   -1.2990    0.0000 C   0  0  0  0  0  0  0  0  0  0  0  0
    7.5000    0.0000    0.0000 O   0  0  0  0  0  0  0  0  0  0  0  0
    9.7500   -1.2990    0.0000 O   0  0  0  0  0  0  0  0  0  0  0  0
  2  1  1  1
  2  3  1  0
  3  4  1  0
  4  5  1  0
  4  6  1  0
  2  7  1  0
  7  8  2  0
  7  9  1  0
  9 10  1  0
  9 11  1  0
 11 12  1  1
 12 13  1  0
 13 14  2  0
 14 15  1  0
 15 16  2  0
 16 17  1  0
 17 18  2  0
 11 19  1  0
 19 20  2  0
 19 21  1  0
 21 22  1  0
 22 23  1  6
 23 24  1  0
 24 25  3  0
 22 26  1  0
 26 27  2  0
 26 28  1  0
 18 13  1  0
M  END
$$$$

     RDKit          2D

 28 28  0  0  0  0  0  0  0  0999 V2000
    1.5000   -5.1962    0.0000 N   0  0  0  0  0  0  0  0  0  0  0  0
    0.7500   -3.8971    0.0000 C   0  0  0  0  0  0  0  0  0  0  0  0
   -0.7500   -3.8971    0.0000 C   0  0  0  0  0  0  0  0  0  0  0  0
   -1.5000   -5.1962    0.0000 C   0  0  0  0  0  0  0  0  0  0  0  0
   -3.0000   -5.1962    0.0000 C   0  0  0  0  0  0  0  0  0  0  0  0
   -0.7500   -6.4952    0.0000 C   0  0  0  0  0  0  0  0  0  0  0  0
    1.5000   -2.5981    0.0000 C   0  0  0  0  0  0  0  0  0  0  0  0
    0.7500   -1.2990    0.0000 O   0  0  0  0  0  0  0  0  0  0  0  0
    3.0000   -2.5981    0.0000 N   0  0  0  0  0  0  0  0  0  0  0  0
    3.7500   -3.8971    0.0000 C   0  0  0  0  0  0  0  0  0  0  0  0
    3.7500   -1.2990    0.0000 C   0  0  0  0  0  0  0  0  0  0  0  0
    3.0000    0.0000    0.0000 C   0  0  0  0  0  0  0  0  0  0  0  0
    3.7500    1.2990    0.0000 C   0  0  0  0  0  0  0  0  0  0  0  0
    3.0000    2.5981    0.0000 C   0  0  0  0  0  0  0  0  0  0  0  0
    3.7500    3.8971    0.0000 C   0  0  0  0  0  0  0  0  0  0  0  0
    5.2500    3.8971    0.0000 C   0  0  0  0  0  0  0  0  0  0  0  0
    6.0000    2.5981    0.0000 C   0  0  0  0  0  0  0  0  0  0  0  0
    5.2500    1.2990    0.0000 C   0  0  0  0  0  0  0  0  0  0  0  0
    5.2500   -1.2990    0.0000 C   0  0  0  0  0  0  0  0  0  0  0  0
    6.0000    0.0000    0.0000 O   0  0  0  0  0  0  0  0  0  0  0  0
    6.0000   -2.5981    0.0000 N   0  0  0  0  0  0  0  0  0  0  0  0
    7.5000   -2.5981    0.0000 C   0  0  0  0  0  0  0  0  0  0  0  0
    8.2500   -3.8971    0.0000 C   0  0  0  0  0  0  0  0  0  0  0  0
    9.7500   -3.8971    0.0000 C   0  0  0  0  0  0  0  0  0  0  0  0
   11.2500   -3.8971    0.0000 C   0  0  0  0  0  0  0  0  0  0  0  0
    8.2500   -1.2990    0.0000 C   0  0  0  0  0  0  0  0  0  0  0  0
    7.5000    0.0000    0.0000 O   0  0  0  0  0  0  0  0  0  0  0  0
    9.7500   -1.2990    0.0000 O   0  0  0  0  0  0  0  0  0  0  0  0
  2  1  1  6
  2  3  1  0
  3  4  1  0
  4  5  1  0
  4  6  1  0
  2  7  1  0
  7  8  2  0
  7  9  1  0
  9 10  1  0
  9 11  1  0
 11 12  1  1
 12 13  1  0
 13 14  2  0
 14 15  1  0
 15 16  2  0
 16 17  1  0
 17 18  2  0
 11 19  1  0
 19 20  2  0
 19 21  1  0
 21 22  1  0
 22 23  1  6
 23 24  1  0
 24 25  3  0
 22 26  1  0
 26 27  2  0
 26 28  1  0
 18 13  1  0
M  END
$$$$

     RDKit          2D

 27 27  0  0  0  0  0  0  0  0999 V2000
    1.5000   -5.1962    0.0000 N   0  0  0  0  0  0  0  0  0  0  0  0
    0.7500   -3.8971    0.0000 C   0  0  0  0  0  0  0  0  0  0  0  0
   -0.7500   -3.8971    0.0000 C   0  0  0  0  0  0  0  0  0  0  0  0
   -1.5000   -5.1962    0.0000 C   0  0  0  0  0  0  0  0  0  0  0  0
   -1.5000   -2.5981    0.0000 C   0  0  0  0  0  0  0  0  0  0  0  0
    1.5000   -2.5981    0.0000 C   0  0  0  0  0  0  0  0  0  0  0  0
    0.7500   -1.2990    0.0000 O   0  0  0  0  0  0  0  0  0  0  0  0
    3.0000   -2.5981    0.0000 N   0  0  0  0  0  0  0  0  0  0  0  0
    3.7500   -3.8971    0.0000 C   0  0  0  0  0  0  0  0  0  0  0  0
    3.7500   -1.2990    0.0000 C   0  0  0  0  0  0  0  0  0  0  0  0
    3.0000    0.0000    0.0000 C   0  0  0  0  0  0  0  0  0  0  0  0
    3.7500    1.2990    0.0000 C   0  0  0  0  0  0  0  0  0  0  0  0
    5.2500    1.2990    0.0000 C   0  0  0  0  0  0  0  0  0  0  0  0
    6.0000    2.5981    0.0000 C   0  0  0  0  0  0  0  0  0  0  0  0
    5.2500    3.8971    0.0000 C   0  0  0  0  0  0  0  0  0  0  0  0
    3.7500    3.8971    0.0000 C   0  0  0  0  0  0  0  0  0  0  0  0
    3.0000    2.5981    0.0000 C   0  0  0  0  0  0  0  0  0  0  0  0
    5.2500   -1.2990    0.0000 C   0  0  0  0  0  0  0  0  0  0  0  0
    6.0000    0.0000    0.0000 O   0  0  0  0  0  0  0  0  0  0  0  0
    6.0000   -2.5981    0.0000 N   0  0  0  0  0  0  0  0  0  0  0  0
    7.5000   -2.5981    0.0000 C   0  0  0  0  0  0  0  0  0  0  0  0
    8.2500   -3.8971    0.0000 C   0  0  0  0  0  0  0  0  0  0  0  0
    9.7500   -3.8971    0.0000 C   0  0  0  0  0  0  0  0  0  0  0  0
   11.2500   -3.8971    0.0000 C   0  0  0  0  0  0  0  0  0  0  0  0
    8.2500   -1.2990    0.0000 C   0  0  0  0  0  0  0  0  0  0  0  0
    7.5000    0.0000    0.0000 O   0  0  0  0  0  0  0  0  0  0  0  0
    9.7500   -1.2990    0.0000 O   0  0  0  0  0  0  0  0  0  0  0  0
  2  1  1  1
  2  3  1  0
  3  4  1  0
  3  5  1  0
  2  6  1  0
  6  7  2  0
  6  8  1  0
  8  9  1  0
  8 10  1  0
 10 11  1  1
 11 12  1  0
 12 13  2  0
 13 14  1  0
 14 15  2  0
 15 16  1  0
 16 17  2  0
 10 18  1  0
 18 19  2  0
 18 20  1  0
 20 21  1  0
 21 22  1  6
 22 23  1  0
 23 24  3  0
 21 25  1  0
 25 26  2  0
 25 27  1  0
 17 12  1  0
M  END
$$$$

     RDKit          2D

 27 27  0  0  0  0  0  0  0  0999 V2000
    1.5000   -5.1962    0.0000 N   0  0  0  0  0  0  0  0  0  0  0  0
    0.7500   -3.8971    0.0000 C   0  0  0  0  0  0  0  0  0  0  0  0
   -0.7500   -3.8971    0.0000 C   0  0  0  0  0  0  0  0  0  0  0  0
   -1.5000   -5.1962    0.0000 C   0  0  0  0  0  0  0  0  0  0  0  0
   -1.5000   -2.5981    0.0000 C   0  0  0  0  0  0  0  0  0  0  0  0
    1.5000   -2.5981    0.0000 C   0  0  0  0  0  0  0  0  0  0  0  0
    0.7500   -1.2990    0.0000 O   0  0  0  0  0  0  0  0  0  0  0  0
    3.0000   -2.5981    0.0000 N   0  0  0  0  0  0  0  0  0  0  0  0
    3.7500   -3.8971    0.0000 C   0  0  0  0  0  0  0  0  0  0  0  0
    3.7500   -1.2990    0.0000 C   0  0  0  0  0  0  0  0  0  0  0  0
    3.0000    0.0000    0.0000 C   0  0  0  0  0  0  0  0  0  0  0  0
    3.7500    1.2990    0.0000 C   0  0  0  0  0  0  0  0  0  0  0  0
    5.2500    1.2990    0.0000 C   0  0  0  0  0  0  0  0  0  0  0  0
    6.0000    2.5981    0.0000 C   0  0  0  0  0  0  0  0  0  0  0  0
    5.2500    3.8971    0.0000 C   0  0  0  0  0  0  0  0  0  0  0  0
    3.7500    3.8971    0.0000 C   0  0  0  0  0  0  0  0  0  0  0  0
    3.0000    2.5981    0.0000 C   0  0  0  0  0  0  0  0  0  0  0  0
    5.2500   -1.2990    0.0000 C   0  0  0  0  0  0  0  0  0  0  0  0
    6.0000    0.0000    0.0000 O   0  0  0  0  0  0  0  0  0  0  0  0
    6.0000   -2.5981    0.0000 N   0  0  0  0  0  0  0  0  0  0  0  0
    7.5000   -2.5981    0.0000 C   0  0  0  0  0  0  0  0  0  0  0  0
    8.2500   -3.8971    0.0000 C   0  0  0  0  0  0  0  0  0  0  0  0
    9.7500   -3.8971    0.0000 C   0  0  0  0  0  0  0  0  0  0  0  0
   11.2500   -3.8971    0.0000 C   0  0  0  0  0  0  0  0  0  0  0  0
    8.2500   -1.2990    0.0000 C   0  0  0  0  0  0  0  0  0  0  0  0
    7.5000    0.0000    0.0000 O   0  0  0  0  0  0  0  0  0  0  0  0
    9.7500   -1.2990    0.0000 O   0  0  0  0  0  0  0  0  0  0  0  0
  2  1  1  6
  2  3  1  0
  3  4  1  0
  3  5  1  0
  2  6  1  0
  6  7  2  0
  6  8  1  0
  8  9  1  0
  8 10  1  0
 10 11  1  1
 11 12  1  0
 12 13  2  0
 13 14  1  0
 14 15  2  0
 15 16  1  0
 16 17  2  0
 10 18  1  0
 18 19  2  0
 18 20  1  0
 20 21  1  0
 21 22  1  6
 22 23  1  0
 23 24  3  0
 21 25  1  0
 25 26  2  0
 25 27  1  0
 17 12  1  0
M  END
$$$$

     RDKit          2D

 29 29  0  0  0  0  0  0  0  0999 V2000
    1.5000   -5.1962    0.0000 N   0  0  0  0  0  0  0  0  0  0  0  0
    0.7500   -6.4952    0.0000 C   0  0  0  0  0  0  0  0  0  0  0  0
    0.7500   -3.8971    0.0000 C   0  0  0  0  0  0  0  0  0  0  0  0
   -0.7500   -3.8971    0.0000 C   0  0  0  0  0  0  0  0  0  0  0  0
   -1.5000   -5.1962    0.0000 C   0  0  0  0  0  0  0  0  0  0  0  0
   -3.0000   -5.1962    0.0000 C   0  0  0  0  0  0  0  0  0  0  0  0
   -0.7500   -6.4952    0.0000 C   0  0  0  0  0  0  0  0  0  0  0  0
    1.5000   -2.5981    0.0000 C   0  0  0  0  0  0  0  0  0  0  0  0
    0.7500   -1.2990    0.0000 O   0  0  0  0  0  0  0  0  0  0  0  0
    3.0000   -2.5981    0.0000 N   0  0  0  0  0  0  0  0  0  0  0  0
    3.7500   -3.8971    0.0000 C   0  0  0  0  0  0  0  0  0  0  0  0
    3.7500   -1.2990    0.0000 C   0  0  0  0  0  0  0  0  0  0  0  0
    3.0000    0.0000    0.0000 C   0  0  0  0  0  0  0  0  0  0  0  0
    3.7500    1.2990    0.0000 C   0  0  0  0  0  0  0  0  0  0  0  0
    5.2500    1.2990    0.0000 C   0  0  0  0  0  0  0  0  0  0  0  0
    6.0000    2.5981    0.0000 C   0  0  0  0  0  0  0  0  0  0  0  0
    5.2500    3.8971    0.0000 C   0  0  0  0  0  0  0  0  0  0  0  0
    3.7500    3.8971    0.0000 C   0  0  0  0  0  0  0  0  0  0  0  0
    3.0000    2.5981    0.0000 C   0  0  0  0  0  0  0  0  0  0  0  0
    5.2500   -1.2990    0.0000 C   0  0  0  0  0  0  0  0  0  0  0  0
    6.0000    0.0000    0.0000 O   0  0  0  0  0  0  0  0  0  0  0  0
    6.0000   -2.5981    0.0000 N   0  0  0  0  0  0  0  0  0  0  0  0
    7.5000   -2.5981    0.0000 C   0  0  0  0  0  0  0  0  0  0  0  0
    8.2500   -3.8971    0.0000 C   0  0  0  0  0  0  0  0  0  0  0  0
    9.7500   -3.8971    0.0000 C   0  0  0  0  0  0  0  0  0  0  0  0
   11.2500   -3.8971    0.0000 C   0  0  0  0  0  0  0  0  0  0  0  0
    8.2500   -1.2990    0.0000 C   0  0  0  0  0  0  0  0  0  0  0  0
    7.5000    0.0000    0.0000 O   0  0  0  0  0  0  0  0  0  0  0  0
    9.7500   -1.2990    0.0000 O   0  0  0  0  0  0  0  0  0  0  0  0
  1  2  1  0
  1  3  1  0
  3  4  1  1
  4  5  1  0
  5  6  1  0
  5  7  1  0
  3  8  1  0
  8  9  2  0
  8 10  1  0
 10 11  1  0
 10 12  1  0
 12 13  1  1
 13 14  1  0
 14 15  2  0
 15 16  1  0
 16 17  2  0
 17 18  1  0
 18 19  2  0
 12 20  1  0
 20 21  2  0
 20 22  1  0
 22 23  1  0
 23 24  1  6
 24 25  1  0
 25 26  3  0
 23 27  1  0
 27 28  2  0
 27 29  1  0
 19 14  1  0
M  END
$$$$

     RDKit          2D

 29 29  0  0  0  0  0  0  0  0999 V2000
    1.5000   -5.1962    0.0000 N   0  0  0  0  0  0  0  0  0  0  0  0
    0.7500   -6.4952    0.0000 C   0  0  0  0  0  0  0  0  0  0  0  0
    0.7500   -3.8971    0.0000 C   0  0  0  0  0  0  0  0  0  0  0  0
   -0.7500   -3.8971    0.0000 C   0  0  0  0  0  0  0  0  0  0  0  0
   -1.5000   -5.1962    0.0000 C   0  0  0  0  0  0  0  0  0  0  0  0
   -3.0000   -5.1962    0.0000 C   0  0  0  0  0  0  0  0  0  0  0  0
   -0.7500   -6.4952    0.0000 C   0  0  0  0  0  0  0  0  0  0  0  0
    1.5000   -2.5981    0.0000 C   0  0  0  0  0  0  0  0  0  0  0  0
    0.7500   -1.2990    0.0000 O   0  0  0  0  0  0  0  0  0  0  0  0
    3.0000   -2.5981    0.0000 N   0  0  0  0  0  0  0  0  0  0  0  0
    3.7500   -3.8971    0.0000 C   0  0  0  0  0  0  0  0  0  0  0  0
    3.7500   -1.2990    0.0000 C   0  0  0  0  0  0  0  0  0  0  0  0
    3.0000    0.0000    0.0000 C   0  0  0  0  0  0  0  0  0  0  0  0
    3.7500    1.2990    0.0000 C   0  0  0  0  0  0  0  0  0  0  0  0
    5.2500    1.2990    0.0000 C   0  0  0  0  0  0  0  0  0  0  0  0
    6.0000    2.5981    0.0000 C   0  0  0  0  0  0  0  0  0  0  0  0
    5.2500    3.8971    0.0000 C   0  0  0  0  0  0  0  0  0  0  0  0
    3.7500    3.8971    0.0000 C   0  0  0  0  0  0  0  0  0  0  0  0
    3.0000    2.5981    0.0000 C   0  0  0  0  0  0  0  0  0  0  0  0
    5.2500   -1.2990    0.0000 C   0  0  0  0  0  0  0  0  0  0  0  0
    6.0000    0.0000    0.0000 O   0  0  0  0  0  0  0  0  0  0  0  0
    6.0000   -2.5981    0.0000 N   0  0  0  0  0  0  0  0  0  0  0  0
    7.5000   -2.5981    0.0000 C   0  0  0  0  0  0  0  0  0  0  0  0
    8.2500   -3.8971    0.0000 C   0  0  0  0  0  0  0  0  0  0  0  0
    9.7500   -3.8971    0.0000 C   0  0  0  0  0  0  0  0  0  0  0  0
   11.2500   -3.8971    0.0000 C   0  0  0  0  0  0  0  0  0  0  0  0
    8.2500   -1.2990    0.0000 C   0  0  0  0  0  0  0  0  0  0  0  0
    7.5000    0.0000    0.0000 O   0  0  0  0  0  0  0  0  0  0  0  0
    9.7500   -1.2990    0.0000 O   0  0  0  0  0  0  0  0  0  0  0  0
  1  2  1  0
  1  3  1  0
  3  4  1  6
  4  5  1  0
  5  6  1  0
  5  7  1  0
  3  8  1  0
  8  9  2  0
  8 10  1  0
 10 11  1  0
 10 12  1  0
 12 13  1  1
 13 14  1  0
 14 15  2  0
 15 16  1  0
 16 17  2  0
 17 18  1  0
 18 19  2  0
 12 20  1  0
 20 21  2  0
 20 22  1  0
 22 23  1  0
 23 24  1  6
 24 25  1  0
 25 26  3  0
 23 27  1  0
 27 28  2  0
 27 29  1  0
 19 14  1  0
M  END
$$$$

     RDKit          2D

 31 32  0  0  0  0  0  0  0  0999 V2000
   -0.7500   -9.0933    0.0000 N   0  0  0  0  0  0  0  0  0  0  0  0
    0.7500   -9.0933    0.0000 C   0  0  0  0  0  0  0  0  0  0  0  0
    1.5000  -10.3923    0.0000 C   0  0  0  0  0  0  0  0  0  0  0  0
    0.7500  -11.6913    0.0000 C   0  0  0  0  0  0  0  0  0  0  0  0
    1.5000  -12.9904    0.0000 C   0  0  0  0  0  0  0  0  0  0  0  0
    0.7500  -14.2894    0.0000 C   0  0  0  0  0  0  0  0  0  0  0  0
   -0.7500  -14.2894    0.0000 C   0  0  0  0  0  0  0  0  0  0  0  0
   -1.5000  -12.9904    0.0000 C   0  0  0  0  0  0  0  0  0  0  0  0
   -0.7500  -11.6913    0.0000 C   0  0  0  0  0  0  0  0  0  0  0  0
    1.5000   -7.7942    0.0000 C   0  0  0  0  0  0  0  0  0  0  0  0
    3.0000   -7.7942    0.0000 O   0  0  0  0  0  0  0  0  0  0  0  0
    0.7500   -6.4952    0.0000 N   0  0  0  0  0  0  0  0  0  0  0  0
    1.5000   -5.1962    0.0000 C   0  0  0  0  0  0  0  0  0  0  0  0
   -0.7500   -6.4952    0.0000 C   0  0  0  0  0  0  0  0  0  0  0  0
   -1.5000   -7.7942    0.0000 C   0  0  0  0  0  0  0  0  0  0  0  0
   -3.0000   -7.7942    0.0000 C   0  0  0  0  0  0  0  0  0  0  0  0
   -3.7500   -6.4952    0.0000 C   0  0  0  0  0  0  0  0  0  0  0  0
   -5.2500   -6.4952    0.0000 C   0  0  0  0  0  0  0  0  0  0  0  0
   -6.0000   -7.7942    0.0000 C   0  0  0  0  0  0  0  0  0  0  0  0
   -5.2500   -9.0933    0.0000 C   0  0  0  0  0  0  0  0  0  0  0  0
   -3.7500   -9.0933    0.0000 C   0  0  0  0  0  0  0  0  0  0  0  0
   -1.5000   -5.1962    0.0000 C   0  0  0  0  0  0  0  0  0  0  0  0
   -0.7500   -3.8971    0.0000 O   0  0  0  0  0  0  0  0  0  0  0  0
   -3.0000   -5.1962    0.0000 N   0  0  0  0  0  0  0  0  0  0  0  0
   -3.7500   -3.8971    0.0000 C   0  0  0  0  0  0  0  0  0  0  0  0
   -5.2500   -3.8971    0.0000 C   0  0  0  0  0  0  0  0  0  0  0  0
   -6.0000   -2.5981    0.0000 C   0  0  0  0  0  0  0  0  0  0  0  0
   -6.7500   -1.2990    0.0000 C   0  0  0  0  0  0  0  0  0  0  0  0
   -3.0000   -2.5981    0.0000 C   0  0  0  0  0  0  0  0  0  0  0  0
   -1.5000   -2.5981    0.0000 O   0  0  0  0  0  0  0  0  0  0  0  0
   -3.7500   -1.2990    0.0000 O   0  0  0  0  0  0  0  0  0  0  0  0
  2  1  1  6
  2  3  1  0
  3  4  1  0
  4  5  2  0
  5  6  1  0
  6  7  2  0
  7  8  1  0
  8  9  2  0
  2 10  1  0
 10 11  2  0
 10 12  1  0
 12 13  1  0
 12 14  1  0
 14 15  1  1
 15 16  1  0
 16 17  2  0
 17 18  1  0
 18 19  2  0
 19 20  1  0
 20 21  2  0
 14 22  1  0
 22 23  2  0
 22 24  1  0
 24 25  1  0
 25 26  1  1
 26 27  1  0
 27 28  3  0
 25 29  1  0
 29 30  2  0
 29 31  1  0
  9  4  1  0
 21 16  1  0
M  END
$$$$

     RDKit          2D

 31 32  0  0  0  0  0  0  0  0999 V2000
   -0.7500   -9.0933    0.0000 N   0  0  0  0  0  0  0  0  0  0  0  0
    0.7500   -9.0933    0.0000 C   0  0  0  0  0  0  0  0  0  0  0  0
    1.5000  -10.3923    0.0000 C   0  0  0  0  0  0  0  0  0  0  0  0
    0.7500  -11.6913    0.0000 C   0  0  0  0  0  0  0  0  0  0  0  0
    1.5000  -12.9904    0.0000 C   0  0  0  0  0  0  0  0  0  0  0  0
    0.7500  -14.2894    0.0000 C   0  0  0  0  0  0  0  0  0  0  0  0
   -0.7500  -14.2894    0.0000 C   0  0  0  0  0  0  0  0  0  0  0  0
   -1.5000  -12.9904    0.0000 C   0  0  0  0  0  0  0  0  0  0  0  0
   -0.7500  -11.6913    0.0000 C   0  0  0  0  0  0  0  0  0  0  0  0
    1.5000   -7.7942    0.0000 C   0  0  0  0  0  0  0  0  0  0  0  0
    3.0000   -7.7942    0.0000 O   0  0  0  0  0  0  0  0  0  0  0  0
    0.7500   -6.4952    0.0000 N   0  0  0  0  0  0  0  0  0  0  0  0
    1.5000   -5.1962    0.0000 C   0  0  0  0  0  0  0  0  0  0  0  0
   -0.7500   -6.4952    0.0000 C   0  0  0  0  0  0  0  0  0  0  0  0
   -1.5000   -7.7942    0.0000 C   0  0  0  0  0  0  0  0  0  0  0  0
   -3.0000   -7.7942    0.0000 C   0  0  0  0  0  0  0  0  0  0  0  0
   -3.7500   -6.4952    0.0000 C   0  0  0  0  0  0  0  0  0  0  0  0
   -5.2500   -6.4952    0.0000 C   0  0  0  0  0  0  0  0  0  0  0  0
   -6.0000   -7.7942    0.0000 C   0  0  0  0  0  0  0  0  0  0  0  0
   -5.2500   -9.0933    0.0000 C   0  0  0  0  0  0  0  0  0  0  0  0
   -3.7500   -9.0933    0.0000 C   0  0  0  0  0  0  0  0  0  0  0  0
   -1.5000   -5.1962    0.0000 C   0  0  0  0  0  0  0  0  0  0  0  0
   -0.7500   -3.8971    0.0000 O   0  0  0  0  0  0  0  0  0  0  0  0
   -3.0000   -5.1962    0.0000 N   0  0  0  0  0  0  0  0  0  0  0  0
   -3.7500   -3.8971    0.0000 C   0  0  0  0  0  0  0  0  0  0  0  0
   -5.2500   -3.8971    0.0000 C   0  0  0  0  0  0  0  0  0  0  0  0
   -6.0000   -2.5981    0.0000 C   0  0  0  0  0  0  0  0  0  0  0  0
   -6.7500   -1.2990    0.0000 C   0  0  0  0  0  0  0  0  0  0  0  0
   -3.0000   -2.5981    0.0000 C   0  0  0  0  0  0  0  0  0  0  0  0
   -1.5000   -2.5981    0.0000 O   0  0  0  0  0  0  0  0  0  0  0  0
   -3.7500   -1.2990    0.0000 O   0  0  0  0  0  0  0  0  0  0  0  0
  2  1  1  1
  2  3  1  0
  3  4  1  0
  4  5  2  0
  5  6  1  0
  6  7  2  0
  7  8  1  0
  8  9  2  0
  2 10  1  0
 10 11  2  0
 10 12  1  0
 12 13  1  0
 12 14  1  0
 14 15  1  1
 15 16  1  0
 16 17  2  0
 17 18  1  0
 18 19  2  0
 19 20  1  0
 20 21  2  0
 14 22  1  0
 22 23  2  0
 22 24  1  0
 24 25  1  0
 25 26  1  1
 26 27  1  0
 27 28  3  0
 25 29  1  0
 29 30  2  0
 29 31  1  0
  9  4  1  0
 21 16  1  0
M  END
$$$$

     RDKit          2D

 32 33  0  0  0  0  0  0  0  0999 V2000
    3.7500   -6.4952    0.0000 N   0  0  0  0  0  0  0  0  0  0  0  0
    3.0000   -5.1962    0.0000 C   0  0  0  0  0  0  0  0  0  0  0  0
    3.0000   -7.7942    0.0000 C   0  0  0  0  0  0  0  0  0  0  0  0
    3.7500   -9.0933    0.0000 C   0  0  0  0  0  0  0  0  0  0  0  0
    5.2500   -9.0933    0.0000 C   0  0  0  0  0  0  0  0  0  0  0  0
    6.0000  -10.3923    0.0000 C   0  0  0  0  0  0  0  0  0  0  0  0
    7.5000  -10.3923    0.0000 C   0  0  0  0  0  0  0  0  0  0  0  0
    8.2500   -9.0933    0.0000 C   0  0  0  0  0  0  0  0  0  0  0  0
    7.5000   -7.7942    0.0000 C   0  0  0  0  0  0  0  0  0  0  0  0
    6.0000   -7.7942    0.0000 C   0  0  0  0  0  0  0  0  0  0  0  0
    1.5000   -7.7942    0.0000 C   0  0  0  0  0  0  0  0  0  0  0  0
    0.7500   -9.0933    0.0000 O   0  0  0  0  0  0  0  0  0  0  0  0
    0.7500   -6.4952    0.0000 N   0  0  0  0  0  0  0  0  0  0  0  0
    1.5000   -5.1962    0.0000 C   0  0  0  0  0  0  0  0  0  0  0  0
   -0.7500   -6.4952    0.0000 C   0  0  0  0  0  0  0  0  0  0  0  0
   -1.5000   -7.7942    0.0000 C   0  0  0  0  0  0  0  0  0  0  0  0
   -3.0000   -7.7942    0.0000 C   0  0  0  0  0  0  0  0  0  0  0  0
   -3.7500   -6.4952    0.0000 C   0  0  0  0  0  0  0  0  0  0  0  0
   -5.2500   -6.4952    0.0000 C   0  0  0  0  0  0  0  0  0  0  0  0
   -6.0000   -7.7942    0.0000 C   0  0  0  0  0  0  0  0  0  0  0  0
   -5.2500   -9.0933    0.0000 C   0  0  0  0  0  0  0  0  0  0  0  0
   -3.7500   -9.0933    0.0000 C   0  0  0  0  0  0  0  0  0  0  0  0
   -1.5000   -5.1962    0.0000 C   0  0  0  0  0  0  0  0  0  0  0  0
   -0.7500   -3.8971    0.0000 O   0  0  0  0  0  0  0  0  0  0  0  0
   -3.0000   -5.1962    0.0000 N   0  0  0  0  0  0  0  0  0  0  0  0
   -3.7500   -3.8971    0.0000 C   0  0  0  0  0  0  0  0  0  0  0  0
   -5.2500   -3.8971    0.0000 C   0  0  0  0  0  0  0  0  0  0  0  0
   -6.0000   -2.5981    0.0000 C   0  0  0  0  0  0  0  0  0  0  0  0
   -6.7500   -1.2990    0.0000 C   0  0  0  0  0  0  0  0  0  0  0  0
   -3.0000   -2.5981    0.0000 C   0  0  0  0  0  0  0  0  0  0  0  0
   -1.5000   -2.5981    0.0000 O   0  0  0  0  0  0  0  0  0  0  0  0
   -3.7500   -1.2990    0.0000 O   0  0  0  0  0  0  0  0  0  0  0  0
  1  2  1  0
  1  3  1  0
  3  4  1  1
  4  5  1  0
  5  6  2  0
  6  7  1  0
  7  8  2  0
  8  9  1  0
  9 10  2  0
  3 11  1  0
 11 12  2  0
 11 13  1  0
 13 14  1  0
 13 15  1  0
 15 16  1  1
 16 17  1  0
 17 18  2  0
 18 19  1  0
 19 20  2  0
 20 21  1  0
 21 22  2  0
 15 23  1  0
 23 24  2  0
 23 25  1  0
 25 26  1  0
 26 27  1  1
 27 28  1  0
 28 29  3  0
 26 30  1  0
 30 31  2  0
 30 32  1  0
 10  5  1  0
 22 17  1  0
M  END
$$$$

     RDKit          2D

 32 33  0  0  0  0  0  0  0  0999 V2000
    3.7500   -6.4952    0.0000 N   0  0  0  0  0  0  0  0  0  0  0  0
    3.0000   -5.1962    0.0000 C   0  0  0  0  0  0  0  0  0  0  0  0
    3.0000   -7.7942    0.0000 C   0  0  0  0  0  0  0  0  0  0  0  0
    3.7500   -9.0933    0.0000 C   0  0  0  0  0  0  0  0  0  0  0  0
    5.2500   -9.0933    0.0000 C   0  0  0  0  0  0  0  0  0  0  0  0
    6.0000  -10.3923    0.0000 C   0  0  0  0  0  0  0  0  0  0  0  0
    7.5000  -10.3923    0.0000 C   0  0  0  0  0  0  0  0  0  0  0  0
    8.2500   -9.0933    0.0000 C   0  0  0  0  0  0  0  0  0  0  0  0
    7.5000   -7.7942    0.0000 C   0  0  0  0  0  0  0  0  0  0  0  0
    6.0000   -7.7942    0.0000 C   0  0  0  0  0  0  0  0  0  0  0  0
    1.5000   -7.7942    0.0000 C   0  0  0  0  0  0  0  0  0  0  0  0
    0.7500   -9.0933    0.0000 O   0  0  0  0  0  0  0  0  0  0  0  0
    0.7500   -6.4952    0.0000 N   0  0  0  0  0  0  0  0  0  0  0  0
    1.5000   -5.1962    0.0000 C   0  0  0  0  0  0  0  0  0  0  0  0
   -0.7500   -6.4952    0.0000 C   0  0  0  0  0  0  0  0  0  0  0  0
   -1.5000   -7.7942    0.0000 C   0  0  0  0  0  0  0  0  0  0  0  0
   -3.0000   -7.7942    0.0000 C   0  0  0  0  0  0  0  0  0  0  0  0
   -3.7500   -6.4952    0.0000 C   0  0  0  0  0  0  0  0  0  0  0  0
   -5.2500   -6.4952    0.0000 C   0  0  0  0  0  0  0  0  0  0  0  0
   -6.0000   -7.7942    0.0000 C   0  0  0  0  0  0  0  0  0  0  0  0
   -5.2500   -9.0933    0.0000 C   0  0  0  0  0  0  0  0  0  0  0  0
   -3.7500   -9.0933    0.0000 C   0  0  0  0  0  0  0  0  0  0  0  0
   -1.5000   -5.1962    0.0000 C   0  0  0  0  0  0  0  0  0  0  0  0
   -0.7500   -3.8971    0.0000 O   0  0  0  0  0  0  0  0  0  0  0  0
   -3.0000   -5.1962    0.0000 N   0  0  0  0  0  0  0  0  0  0  0  0
   -3.7500   -3.8971    0.0000 C   0  0  0  0  0  0  0  0  0  0  0  0
   -5.2500   -3.8971    0.0000 C   0  0  0  0  0  0  0  0  0  0  0  0
   -6.0000   -2.5981    0.0000 C   0  0  0  0  0  0  0  0  0  0  0  0
   -6.7500   -1.2990    0.0000 C   0  0  0  0  0  0  0  0  0  0  0  0
   -3.0000   -2.5981    0.0000 C   0  0  0  0  0  0  0  0  0  0  0  0
   -1.5000   -2.5981    0.0000 O   0  0  0  0  0  0  0  0  0  0  0  0
   -3.7500   -1.2990    0.0000 O   0  0  0  0  0  0  0  0  0  0  0  0
  1  2  1  0
  1  3  1  0
  3  4  1  6
  4  5  1  0
  5  6  2  0
  6  7  1  0
  7  8  2  0
  8  9  1  0
  9 10  2  0
  3 11  1  0
 11 12  2  0
 11 13  1  0
 13 14  1  0
 13 15  1  0
 15 16  1  1
 16 17  1  0
 17 18  2  0
 18 19  1  0
 19 20  2  0
 20 21  1  0
 21 22  2  0
 15 23  1  0
 23 24  2  0
 23 25  1  0
 25 26  1  0
 26 27  1  1
 27 28  1  0
 28 29  3  0
 26 30  1  0
 30 31  2  0
 30 32  1  0
 10  5  1  0
 22 17  1  0
M  END
$$$$

     RDKit          2D

 27 27  0  0  0  0  0  0  0  0999 V2000
    1.5000   -5.1962    0.0000 N   0  0  0  0  0  0  0  0  0  0  0  0
    0.7500   -3.8971    0.0000 C   0  0  0  0  0  0  0  0  0  0  0  0
   -0.7500   -3.8971    0.0000 C   0  0  0  0  0  0  0  0  0  0  0  0
   -1.5000   -2.5981    0.0000 O   0  0  0  0  0  0  0  0  0  0  0  0
   -1.5000   -5.1962    0.0000 C   0  0  0  0  0  0  0  0  0  0  0  0
    1.5000   -2.5981    0.0000 C   0  0  0  0  0  0  0  0  0  0  0  0
    0.7500   -1.2990    0.0000 O   0  0  0  0  0  0  0  0  0  0  0  0
    3.0000   -2.5981    0.0000 N   0  0  0  0  0  0  0  0  0  0  0  0
    3.7500   -3.8971    0.0000 C   0  0  0  0  0  0  0  0  0  0  0  0
    3.7500   -1.2990    0.0000 C   0  0  0  0  0  0  0  0  0  0  0  0
    3.0000    0.0000    0.0000 C   0  0  0  0  0  0  0  0  0  0  0  0
    3.7500    1.2990    0.0000 C   0  0  0  0  0  0  0  0  0  0  0  0
    5.2500    1.2990    0.0000 C   0  0  0  0  0  0  0  0  0  0  0  0
    6.0000    2.5981    0.0000 C   0  0  0  0  0  0  0  0  0  0  0  0
    5.2500    3.8971    0.0000 C   0  0  0  0  0  0  0  0  0  0  0  0
    3.7500    3.8971    0.0000 C   0  0  0  0  0  0  0  0  0  0  0  0
    3.0000    2.5981    0.0000 C   0  0  0  0  0  0  0  0  0  0  0  0
    5.2500   -1.2990    0.0000 C   0  0  0  0  0  0  0  0  0  0  0  0
    6.0000    0.0000    0.0000 O   0  0  0  0  0  0  0  0  0  0  0  0
    6.0000   -2.5981    0.0000 N   0  0  0  0  0  0  0  0  0  0  0  0
    7.5000   -2.5981    0.0000 C   0  0  0  0  0  0  0  0  0  0  0  0
    8.2500   -3.8971    0.0000 C   0  0  0  0  0  0  0  0  0  0  0  0
    9.7500   -3.8971    0.0000 C   0  0  0  0  0  0  0  0  0  0  0  0
   11.2500   -3.8971    0.0000 C   0  0  0  0  0  0  0  0  0  0  0  0
    8.2500   -1.2990    0.0000 C   0  0  0  0  0  0  0  0  0  0  0  0
    7.5000    0.0000    0.0000 O   0  0  0  0  0  0  0  0  0  0  0  0
    9.7500   -1.2990    0.0000 O   0  0  0  0  0  0  0  0  0  0  0  0
  2  1  1  1
  2  3  1  0
  3  4  1  0
  3  5  1  1
  2  6  1  0
  6  7  2  0
  6  8  1  0
  8  9  1  0
  8 10  1  0
 10 11  1  1
 11 12  1  0
 12 13  2  0
 13 14  1  0
 14 15  2  0
 15 16  1  0
 16 17  2  0
 10 18  1  0
 18 19  2  0
 18 20  1  0
 20 21  1  0
 21 22  1  6
 22 23  1  0
 23 24  3  0
 21 25  1  0
 25 26  2  0
 25 27  1  0
 17 12  1  0
M  END
$$$$

     RDKit          2D

 27 27  0  0  0  0  0  0  0  0999 V2000
    1.5000   -5.1962    0.0000 N   0  0  0  0  0  0  0  0  0  0  0  0
    0.7500   -3.8971    0.0000 C   0  0  0  0  0  0  0  0  0  0  0  0
   -0.7500   -3.8971    0.0000 C   0  0  0  0  0  0  0  0  0  0  0  0
   -1.5000   -2.5981    0.0000 O   0  0  0  0  0  0  0  0  0  0  0  0
   -1.5000   -5.1962    0.0000 C   0  0  0  0  0  0  0  0  0  0  0  0
    1.5000   -2.5981    0.0000 C   0  0  0  0  0  0  0  0  0  0  0  0
    0.7500   -1.2990    0.0000 O   0  0  0  0  0  0  0  0  0  0  0  0
    3.0000   -2.5981    0.0000 N   0  0  0  0  0  0  0  0  0  0  0  0
    3.7500   -3.8971    0.0000 C   0  0  0  0  0  0  0  0  0  0  0  0
    3.7500   -1.2990    0.0000 C   0  0  0  0  0  0  0  0  0  0  0  0
    3.0000    0.0000    0.0000 C   0  0  0  0  0  0  0  0  0  0  0  0
    3.7500    1.2990    0.0000 C   0  0  0  0  0  0  0  0  0  0  0  0
    5.2500    1.2990    0.0000 C   0  0  0  0  0  0  0  0  0  0  0  0
    6.0000    2.5981    0.0000 C   0  0  0  0  0  0  0  0  0  0  0  0
    5.2500    3.8971    0.0000 C   0  0  0  0  0  0  0  0  0  0  0  0
    3.7500    3.8971    0.0000 C   0  0  0  0  0  0  0  0  0  0  0  0
    3.0000    2.5981    0.0000 C   0  0  0  0  0  0  0  0  0  0  0  0
    5.2500   -1.2990    0.0000 C   0  0  0  0  0  0  0  0  0  0  0  0
    6.0000    0.0000    0.0000 O   0  0  0  0  0  0  0  0  0  0  0  0
    6.0000   -2.5981    0.0000 N   0  0  0  0  0  0  0  0  0  0  0  0
    7.5000   -2.5981    0.0000 C   0  0  0  0  0  0  0  0  0  0  0  0
    8.2500   -3.8971    0.0000 C   0  0  0  0  0  0  0  0  0  0  0  0
    9.7500   -3.8971    0.0000 C   0  0  0  0  0  0  0  0  0  0  0  0
   11.2500   -3.8971    0.0000 C   0  0  0  0  0  0  0  0  0  0  0  0
    8.2500   -1.2990    0.0000 C   0  0  0  0  0  0  0  0  0  0  0  0
    7.5000    0.0000    0.0000 O   0  0  0  0  0  0  0  0  0  0  0  0
    9.7500   -1.2990    0.0000 O   0  0  0  0  0  0  0  0  0  0  0  0
  2  1  1  6
  2  3  1  0
  3  4  1  0
  3  5  1  1
  2  6  1  0
  6  7  2  0
  6  8  1  0
  8  9  1  0
  8 10  1  0
 10 11  1  1
 11 12  1  0
 12 13  2  0
 13 14  1  0
 14 15  2  0
 15 16  1  0
 16 17  2  0
 10 18  1  0
 18 19  2  0
 18 20  1  0
 20 21  1  0
 21 22  1  6
 22 23  1  0
 23 24  3  0
 21 25  1  0
 25 26  2  0
 25 27  1  0
 17 12  1  0
M  END
$$$$

     RDKit          2D

 28 28  0  0  0  0  0  0  0  0999 V2000
    1.5000   -5.1962    0.0000 N   0  0  0  0  0  0  0  0  0  0  0  0
    0.7500   -6.4952    0.0000 C   0  0  0  0  0  0  0  0  0  0  0  0
    0.7500   -3.8971    0.0000 C   0  0  0  0  0  0  0  0  0  0  0  0
   -0.7500   -3.8971    0.0000 C   0  0  0  0  0  0  0  0  0  0  0  0
   -1.5000   -2.5981    0.0000 O   0  0  0  0  0  0  0  0  0  0  0  0
   -1.5000   -5.1962    0.0000 C   0  0  0  0  0  0  0  0  0  0  0  0
    1.5000   -2.5981    0.0000 C   0  0  0  0  0  0  0  0  0  0  0  0
    0.7500   -1.2990    0.0000 O   0  0  0  0  0  0  0  0  0  0  0  0
    3.0000   -2.5981    0.0000 N   0  0  0  0  0  0  0  0  0  0  0  0
    3.7500   -3.8971    0.0000 C   0  0  0  0  0  0  0  0  0  0  0  0
    3.7500   -1.2990    0.0000 C   0  0  0  0  0  0  0  0  0  0  0  0
    3.0000    0.0000    0.0000 C   0  0  0  0  0  0  0  0  0  0  0  0
    3.7500    1.2990    0.0000 C   0  0  0  0  0  0  0  0  0  0  0  0
    5.2500    1.2990    0.0000 C   0  0  0  0  0  0  0  0  0  0  0  0
    6.0000    2.5981    0.0000 C   0  0  0  0  0  0  0  0  0  0  0  0
    5.2500    3.8971    0.0000 C   0  0  0  0  0  0  0  0  0  0  0  0
    3.7500    3.8971    0.0000 C   0  0  0  0  0  0  0  0  0  0  0  0
    3.0000    2.5981    0.0000 C   0  0  0  0  0  0  0  0  0  0  0  0
    5.2500   -1.2990    0.0000 C   0  0  0  0  0  0  0  0  0  0  0  0
    6.0000    0.0000    0.0000 O   0  0  0  0  0  0  0  0  0  0  0  0
    6.0000   -2.5981    0.0000 N   0  0  0  0  0  0  0  0  0  0  0  0
    7.5000   -2.5981    0.0000 C   0  0  0  0  0  0  0  0  0  0  0  0
    8.2500   -3.8971    0.0000 C   0  0  0  0  0  0  0  0  0  0  0  0
    9.7500   -3.8971    0.0000 C   0  0  0  0  0  0  0  0  0  0  0  0
   11.2500   -3.8971    0.0000 C   0  0  0  0  0  0  0  0  0  0  0  0
    8.2500   -1.2990    0.0000 C   0  0  0  0  0  0  0  0  0  0  0  0
    7.5000    0.0000    0.0000 O   0  0  0  0  0  0  0  0  0  0  0  0
    9.7500   -1.2990    0.0000 O   0  0  0  0  0  0  0  0  0  0  0  0
  1  2  1  0
  3  1  1  1
  3  4  1  0
  4  5  1  0
  4  6  1  1
  3  7  1  0
  7  8  2  0
  7  9  1  0
  9 10  1  0
  9 11  1  0
 11 12  1  1
 12 13  1  0
 13 14  2  0
 14 15  1  0
 15 16  2  0
 16 17  1  0
 17 18  2  0
 11 19  1  0
 19 20  2  0
 19 21  1  0
 21 22  1  0
 22 23  1  6
 23 24  1  0
 24 25  3  0
 22 26  1  0
 26 27  2  0
 26 28  1  0
 18 13  1  0
M  END
$$$$

     RDKit          2D

 28 28  0  0  0  0  0  0  0  0999 V2000
    1.5000   -5.1962    0.0000 N   0  0  0  0  0  0  0  0  0  0  0  0
    0.7500   -6.4952    0.0000 C   0  0  0  0  0  0  0  0  0  0  0  0
    0.7500   -3.8971    0.0000 C   0  0  0  0  0  0  0  0  0  0  0  0
   -0.7500   -3.8971    0.0000 C   0  0  0  0  0  0  0  0  0  0  0  0
   -1.5000   -2.5981    0.0000 O   0  0  0  0  0  0  0  0  0  0  0  0
   -1.5000   -5.1962    0.0000 C   0  0  0  0  0  0  0  0  0  0  0  0
    1.5000   -2.5981    0.0000 C   0  0  0  0  0  0  0  0  0  0  0  0
    0.7500   -1.2990    0.0000 O   0  0  0  0  0  0  0  0  0  0  0  0
    3.0000   -2.5981    0.0000 N   0  0  0  0  0  0  0  0  0  0  0  0
    3.7500   -3.8971    0.0000 C   0  0  0  0  0  0  0  0  0  0  0  0
    3.7500   -1.2990    0.0000 C   0  0  0  0  0  0  0  0  0  0  0  0
    3.0000    0.0000    0.0000 C   0  0  0  0  0  0  0  0  0  0  0  0
    3.7500    1.2990    0.0000 C   0  0  0  0  0  0  0  0  0  0  0  0
    5.2500    1.2990    0.0000 C   0  0  0  0  0  0  0  0  0  0  0  0
    6.0000    2.5981    0.0000 C   0  0  0  0  0  0  0  0  0  0  0  0
    5.2500    3.8971    0.0000 C   0  0  0  0  0  0  0  0  0  0  0  0
    3.7500    3.8971    0.0000 C   0  0  0  0  0  0  0  0  0  0  0  0
    3.0000    2.5981    0.0000 C   0  0  0  0  0  0  0  0  0  0  0  0
    5.2500   -1.2990    0.0000 C   0  0  0  0  0  0  0  0  0  0  0  0
    6.0000    0.0000    0.0000 O   0  0  0  0  0  0  0  0  0  0  0  0
    6.0000   -2.5981    0.0000 N   0  0  0  0  0  0  0  0  0  0  0  0
    7.5000   -2.5981    0.0000 C   0  0  0  0  0  0  0  0  0  0  0  0
    8.2500   -3.8971    0.0000 C   0  0  0  0  0  0  0  0  0  0  0  0
    9.7500   -3.8971    0.0000 C   0  0  0  0  0  0  0  0  0  0  0  0
   11.2500   -3.8971    0.0000 C   0  0  0  0  0  0  0  0  0  0  0  0
    8.2500   -1.2990    0.0000 C   0  0  0  0  0  0  0  0  0  0  0  0
    7.5000    0.0000    0.0000 O   0  0  0  0  0  0  0  0  0  0  0  0
    9.7500   -1.2990    0.0000 O   0  0  0  0  0  0  0  0  0  0  0  0
  1  2  1  0
  3  1  1  6
  3  4  1  0
  4  5  1  0
  4  6  1  1
  3  7  1  0
  7  8  2  0
  7  9  1  0
  9 10  1  0
  9 11  1  0
 11 12  1  1
 12 13  1  0
 13 14  2  0
 14 15  1  0
 15 16  2  0
 16 17  1  0
 17 18  2  0
 11 19  1  0
 19 20  2  0
 19 21  1  0
 21 22  1  0
 22 23  1  6
 23 24  1  0
 24 25  3  0
 22 26  1  0
 26 27  2  0
 26 28  1  0
 18 13  1  0
M  END
$$$$

     RDKit          2D

 28 28  0  0  0  0  0  0  0  0999 V2000
   -0.7500   -3.8971    0.0000 N   0  0  0  0  0  0  0  0  0  0  0  0
   -1.5000   -5.1962    0.0000 C   0  0  0  0  0  0  0  0  0  0  0  0
   -3.0000   -5.1962    0.0000 C   0  0  0  0  0  0  0  0  0  0  0  0
   -3.7500   -6.4952    0.0000 C   0  0  0  0  0  0  0  0  0  0  0  0
   -3.7500   -3.8971    0.0000 C   0  0  0  0  0  0  0  0  0  0  0  0
    0.7500   -3.8971    0.0000 C   0  0  0  0  0  0  0  0  0  0  0  0
    1.5000   -2.5981    0.0000 C   0  0  0  0  0  0  0  0  0  0  0  0
    0.7500   -1.2990    0.0000 O   0  0  0  0  0  0  0  0  0  0  0  0
    3.0000   -2.5981    0.0000 N   0  0  0  0  0  0  0  0  0  0  0  0
    3.7500   -3.8971    0.0000 C   0  0  0  0  0  0  0  0  0  0  0  0
    3.7500   -1.2990    0.0000 C   0  0  0  0  0  0  0  0  0  0  0  0
    3.0000    0.0000    0.0000 C   0  0  0  0  0  0  0  0  0  0  0  0
    3.7500    1.2990    0.0000 C   0  0  0  0  0  0  0  0  0  0  0  0
    5.2500    1.2990    0.0000 C   0  0  0  0  0  0  0  0  0  0  0  0
    6.0000    2.5981    0.0000 C   0  0  0  0  0  0  0  0  0  0  0  0
    5.2500    3.8971    0.0000 C   0  0  0  0  0  0  0  0  0  0  0  0
    3.7500    3.8971    0.0000 C   0  0  0  0  0  0  0  0  0  0  0  0
    3.0000    2.5981    0.0000 C   0  0  0  0  0  0  0  0  0  0  0  0
    5.2500   -1.2990    0.0000 C   0  0  0  0  0  0  0  0  0  0  0  0
    6.0000    0.0000    0.0000 O   0  0  0  0  0  0  0  0  0  0  0  0
    6.0000   -2.5981    0.0000 N   0  0  0  0  0  0  0  0  0  0  0  0
    7.5000   -2.5981    0.0000 C   0  0  0  0  0  0  0  0  0  0  0  0
    8.2500   -3.8971    0.0000 C   0  0  0  0  0  0  0  0  0  0  0  0
    9.7500   -3.8971    0.0000 C   0  0  0  0  0  0  0  0  0  0  0  0
   11.2500   -3.8971    0.0000 C   0  0  0  0  0  0  0  0  0  0  0  0
    8.2500   -1.2990    0.0000 C   0  0  0  0  0  0  0  0  0  0  0  0
    7.5000    0.0000    0.0000 O   0  0  0  0  0  0  0  0  0  0  0  0
    9.7500   -1.2990    0.0000 O   0  0  0  0  0  0  0  0  0  0  0  0
  1  2  1  0
  2  3  1  0
  3  4  1  0
  3  5  1  0
  1  6  1  0
  6  7  1  0
  7  8  2  0
  7  9  1  0
  9 10  1  0
  9 11  1  0
 11 12  1  1
 12 13  1  0
 13 14  2  0
 14 15  1  0
 15 16  2  0
 16 17  1  0
 17 18  2  0
 11 19  1  0
 19 20  2  0
 19 21  1  0
 21 22  1  0
 22 23  1  6
 23 24  1  0
 24 25  3  0
 22 26  1  0
 26 27  2  0
 26 28  1  0
 18 13  1  0
M  END
$$$$

     RDKit          2D

 31 31  0  0  0  0  0  0  0  0999 V2000
   -0.7500   -3.8971    0.0000 N   0  0  0  0  0  0  0  0  0  0  0  0
   -1.5000   -5.1962    0.0000 C   0  0  0  0  0  0  0  0  0  0  0  0
   -3.0000   -5.1962    0.0000 C   0  0  0  0  0  0  0  0  0  0  0  0
   -3.7500   -6.4952    0.0000 C   0  0  0  0  0  0  0  0  0  0  0  0
   -5.2500   -6.4952    0.0000 O   0  0  0  0  0  0  0  0  0  0  0  0
   -6.0000   -7.7942    0.0000 C   0  0  0  0  0  0  0  0  0  0  0  0
   -7.5000   -7.7942    0.0000 C   0  0  0  0  0  0  0  0  0  0  0  0
   -5.2500   -9.0933    0.0000 C   0  0  0  0  0  0  0  0  0  0  0  0
    0.7500   -3.8971    0.0000 C   0  0  0  0  0  0  0  0  0  0  0  0
    1.5000   -2.5981    0.0000 C   0  0  0  0  0  0  0  0  0  0  0  0
    0.7500   -1.2990    0.0000 O   0  0  0  0  0  0  0  0  0  0  0  0
    3.0000   -2.5981    0.0000 N   0  0  0  0  0  0  0  0  0  0  0  0
    3.7500   -3.8971    0.0000 C   0  0  0  0  0  0  0  0  0  0  0  0
    3.7500   -1.2990    0.0000 C   0  0  0  0  0  0  0  0  0  0  0  0
    3.0000    0.0000    0.0000 C   0  0  0  0  0  0  0  0  0  0  0  0
    3.7500    1.2990    0.0000 C   0  0  0  0  0  0  0  0  0  0  0  0
    5.2500    1.2990    0.0000 C   0  0  0  0  0  0  0  0  0  0  0  0
    6.0000    2.5981    0.0000 C   0  0  0  0  0  0  0  0  0  0  0  0
    5.2500    3.8971    0.0000 C   0  0  0  0  0  0  0  0  0  0  0  0
    3.7500    3.8971    0.0000 C   0  0  0  0  0  0  0  0  0  0  0  0
    3.0000    2.5981    0.0000 C   0  0  0  0  0  0  0  0  0  0  0  0
    5.2500   -1.2990    0.0000 C   0  0  0  0  0  0  0  0  0  0  0  0
    6.0000    0.0000    0.0000 O   0  0  0  0  0  0  0  0  0  0  0  0
    6.0000   -2.5981    0.0000 N   0  0  0  0  0  0  0  0  0  0  0  0
    7.5000   -2.5981    0.0000 C   0  0  0  0  0  0  0  0  0  0  0  0
    8.2500   -3.8971    0.0000 C   0  0  0  0  0  0  0  0  0  0  0  0
    9.7500   -3.8971    0.0000 C   0  0  0  0  0  0  0  0  0  0  0  0
   11.2500   -3.8971    0.0000 C   0  0  0  0  0  0  0  0  0  0  0  0
    8.2500   -1.2990    0.0000 C   0  0  0  0  0  0  0  0  0  0  0  0
    7.5000    0.0000    0.0000 O   0  0  0  0  0  0  0  0  0  0  0  0
    9.7500   -1.2990    0.0000 O   0  0  0  0  0  0  0  0  0  0  0  0
  1  2  1  0
  2  3  1  0
  3  4  1  0
  4  5  1  0
  5  6  1  0
  6  7  1  0
  6  8  1  0
  1  9  1  0
  9 10  1  0
 10 11  2  0
 10 12  1  0
 12 13  1  0
 12 14  1  0
 14 15  1  1
 15 16  1  0
 16 17  2  0
 17 18  1  0
 18 19  2  0
 19 20  1  0
 20 21  2  0
 14 22  1  0
 22 23  2  0
 22 24  1  0
 24 25  1  0
 25 26  1  6
 26 27  1  0
 27 28  3  0
 25 29  1  0
 29 30  2  0
 29 31  1  0
 21 16  1  0
M  END
$$$$

     RDKit          2D

 33 34  0  0  0  0  0  0  0  0999 V2000
    0.7500   -6.4952    0.0000 N   0  0  0  0  0  0  0  0  0  0  0  0
    1.5000   -5.1962    0.0000 C   0  0  0  0  0  0  0  0  0  0  0  0
    0.7500   -3.8971    0.0000 C   0  0  0  0  0  0  0  0  0  0  0  0
    1.5000   -2.5981    0.0000 O   0  0  0  0  0  0  0  0  0  0  0  0
    0.7500   -1.2990    0.0000 C   0  0  0  0  0  0  0  0  0  0  0  0
    1.5000    0.0000    0.0000 C   0  0  0  0  0  0  0  0  0  0  0  0
    0.7500    1.2990    0.0000 C   0  0  0  0  0  0  0  0  0  0  0  0
   -0.7500    1.2990    0.0000 C   0  0  0  0  0  0  0  0  0  0  0  0
   -1.5000    0.0000    0.0000 C   0  0  0  0  0  0  0  0  0  0  0  0
   -0.7500   -1.2990    0.0000 C   0  0  0  0  0  0  0  0  0  0  0  0
    1.5000   -7.7942    0.0000 C   0  0  0  0  0  0  0  0  0  0  0  0
    0.7500   -9.0933    0.0000 C   0  0  0  0  0  0  0  0  0  0  0  0
   -0.7500   -9.0933    0.0000 O   0  0  0  0  0  0  0  0  0  0  0  0
    1.5000  -10.3923    0.0000 N   0  0  0  0  0  0  0  0  0  0  0  0
    0.7500  -11.6913    0.0000 C   0  0  0  0  0  0  0  0  0  0  0  0
    3.0000  -10.3923    0.0000 C   0  0  0  0  0  0  0  0  0  0  0  0
    3.7500  -11.6913    0.0000 C   0  0  0  0  0  0  0  0  0  0  0  0
    5.2500  -11.6913    0.0000 C   0  0  0  0  0  0  0  0  0  0  0  0
    6.0000  -12.9904    0.0000 C   0  0  0  0  0  0  0  0  0  0  0  0
    7.5000  -12.9904    0.0000 C   0  0  0  0  0  0  0  0  0  0  0  0
    8.2500  -11.6913    0.0000 C   0  0  0  0  0  0  0  0  0  0  0  0
    7.5000  -10.3923    0.0000 C   0  0  0  0  0  0  0  0  0  0  0  0
    6.0000  -10.3923    0.0000 C   0  0  0  0  0  0  0  0  0  0  0  0
    3.7500   -9.0933    0.0000 C   0  0  0  0  0  0  0  0  0  0  0  0
    3.0000   -7.7942    0.0000 O   0  0  0  0  0  0  0  0  0  0  0  0
    5.2500   -9.0933    0.0000 N   0  0  0  0  0  0  0  0  0  0  0  0
    6.0000   -7.7942    0.0000 C   0  0  0  0  0  0  0  0  0  0  0  0
    7.5000   -7.7942    0.0000 C   0  0  0  0  0  0  0  0  0  0  0  0
    8.2500   -6.4952    0.0000 C   0  0  0  0  0  0  0  0  0  0  0  0
    9.0000   -5.1962    0.0000 C   0  0  0  0  0  0  0  0  0  0  0  0
    5.2500   -6.4952    0.0000 C   0  0  0  0  0  0  0  0  0  0  0  0
    3.7500   -6.4952    0.0000 O   0  0  0  0  0  0  0  0  0  0  0  0
    6.0000   -5.1962    0.0000 O   0  0  0  0  0  0  0  0  0  0  0  0
  1  2  1  0
  2  3  1  0
  3  4  1  0
  4  5  1  0
  5  6  2  0
  6  7  1  0
  7  8  2  0
  8  9  1  0
  9 10  2  0
  1 11  1  0
 11 12  1  0
 12 13  2  0
 12 14  1  0
 14 15  1  0
 14 16  1  0
 16 17  1  6
 17 18  1  0
 18 19  2  0
 19 20  1  0
 20 21  2  0
 21 22  1  0
 22 23  2  0
 16 24  1  0
 24 25  2  0
 24 26  1  0
 26 27  1  0
 27 28  1  6
 28 29  1  0
 29 30  3  0
 27 31  1  0
 31 32  2  0
 31 33  1  0
 23 18  1  0
 10  5  1  0
M  END
$$$$

     RDKit          2D

 36 37  0  0  0  0  0  0  0  0999 V2000
    1.5000   -5.1962    0.0000 N   0  0  0  0  0  0  0  0  0  0  0  0
    0.7500   -3.8971    0.0000 C   0  0  0  0  0  0  0  0  0  0  0  0
    1.5000   -2.5981    0.0000 C   0  0  0  0  0  0  0  0  0  0  0  0
    0.7500   -1.2990    0.0000 C   0  0  0  0  0  0  0  0  0  0  0  0
    1.5000    0.0000    0.0000 C   0  0  0  0  0  0  0  0  0  0  0  0
    0.7500    1.2990    0.0000 C   0  0  0  0  0  0  0  0  0  0  0  0
   -0.7500    1.2990    0.0000 C   0  0  0  0  0  0  0  0  0  0  0  0
   -1.5000    0.0000    0.0000 C   0  0  0  0  0  0  0  0  0  0  0  0
   -3.0000    0.0000    0.0000 O   0  0  0  0  0  0  0  0  0  0  0  0
   -3.7500   -1.2990    0.0000 C   0  0  0  0  0  0  0  0  0  0  0  0
   -0.7500   -1.2990    0.0000 C   0  0  0  0  0  0  0  0  0  0  0  0
   -1.5000    2.5981    0.0000 O   0  0  0  0  0  0  0  0  0  0  0  0
   -0.7500    3.8971    0.0000 C   0  0  0  0  0  0  0  0  0  0  0  0
    0.7500   -6.4952    0.0000 C   0  0  0  0  0  0  0  0  0  0  0  0
    1.5000   -7.7942    0.0000 C   0  0  0  0  0  0  0  0  0  0  0  0
    3.0000   -7.7942    0.0000 O   0  0  0  0  0  0  0  0  0  0  0  0
    0.7500   -9.0933    0.0000 N   0  0  0  0  0  0  0  0  0  0  0  0
    1.5000  -10.3923    0.0000 C   0  0  0  0  0  0  0  0  0  0  0  0
   -0.7500   -9.0933    0.0000 C   0  0  0  0  0  0  0  0  0  0  0  0
   -1.5000  -10.3923    0.0000 C   0  0  0  0  0  0  0  0  0  0  0  0
   -3.0000  -10.3923    0.0000 C   0  0  0  0  0  0  0  0  0  0  0  0
   -3.7500   -9.0933    0.0000 C   0  0  0  0  0  0  0  0  0  0  0  0
   -5.2500   -9.0933    0.0000 C   0  0  0  0  0  0  0  0  0  0  0  0
   -6.0000  -10.3923    0.0000 C   0  0  0  0  0  0  0  0  0  0  0  0
   -5.2500  -11.6913    0.0000 C   0  0  0  0  0  0  0  0  0  0  0  0
   -3.7500  -11.6913    0.0000 C   0  0  0  0  0  0  0  0  0  0  0  0
   -1.5000   -7.7942    0.0000 C   0  0  0  0  0  0  0  0  0  0  0  0
   -0.7500   -6.4952    0.0000 O   0  0  0  0  0  0  0  0  0  0  0  0
   -3.0000   -7.7942    0.0000 N   0  0  0  0  0  0  0  0  0  0  0  0
   -3.7500   -6.4952    0.0000 C   0  0  0  0  0  0  0  0  0  0  0  0
   -5.2500   -6.4952    0.0000 C   0  0  0  0  0  0  0  0  0  0  0  0
   -6.0000   -5.1962    0.0000 C   0  0  0  0  0  0  0  0  0  0  0  0
   -6.7500   -3.8971    0.0000 C   0  0  0  0  0  0  0  0  0  0  0  0
   -3.0000   -5.1962    0.0000 C   0  0  0  0  0  0  0  0  0  0  0  0
   -1.5000   -5.1962    0.0000 O   0  0  0  0  0  0  0  0  0  0  0  0
   -3.7500   -3.8971    0.0000 O   0  0  0  0  0  0  0  0  0  0  0  0
  1  2  1  0
  2  3  1  0
  3  4  1  0
  4  5  2  0
  5  6  1  0
  6  7  2  0
  7  8  1  0
  8  9  1  0
  9 10  1  0
  8 11  2  0
  7 12  1  0
 12 13  1  0
  1 14  1  0
 14 15  1  0
 15 16  2  0
 15 17  1  0
 17 18  1  0
 17 19  1  0
 19 20  1  1
 20 21  1  0
 21 22  2  0
 22 23  1  0
 23 24  2  0
 24 25  1  0
 25 26  2  0
 19 27  1  0
 27 28  2  0
 27 29  1  0
 29 30  1  0
 30 31  1  1
 31 32  1  0
 32 33  3  0
 30 34  1  0
 34 35  2  0
 34 36  1  0
 26 21  1  0
 11  4  1  0
M  END
$$$$

     RDKit          2D

 43 44  0  0  0  0  0  0  0  0999 V2000
   -8.8235    0.2211    0.0000 N   0  0  0  0  0  0  0  0  0  0  0  0
   -8.3600    1.6477    0.0000 C   0  0  0  0  0  0  0  0  0  0  0  0
   -9.3637    2.7625    0.0000 C   0  0  0  0  0  0  0  0  0  0  0  0
  -10.8309    2.4506    0.0000 C   0  0  0  0  0  0  0  0  0  0  0  0
  -11.8346    3.5653    0.0000 C   0  0  0  0  0  0  0  0  0  0  0  0
  -11.2944    1.0240    0.0000 C   0  0  0  0  0  0  0  0  0  0  0  0
   -6.8928    1.9596    0.0000 C   0  0  0  0  0  0  0  0  0  0  0  0
   -6.4292    3.3862    0.0000 O   0  0  0  0  0  0  0  0  0  0  0  0
   -5.8891    0.8449    0.0000 N   0  0  0  0  0  0  0  0  0  0  0  0
   -4.4218    1.1568    0.0000 C   0  0  0  0  0  0  0  0  0  0  0  0
   -3.9583    2.5833    0.0000 C   0  0  0  0  0  0  0  0  0  0  0  0
   -2.4911    2.8952    0.0000 C   0  0  0  0  0  0  0  0  0  0  0  0
   -2.0276    4.3218    0.0000 C   0  0  0  0  0  0  0  0  0  0  0  0
   -1.4874    1.7805    0.0000 C   0  0  0  0  0  0  0  0  0  0  0  0
   -3.4182    0.0420    0.0000 C   0  0  0  0  0  0  0  0  0  0  0  0
   -1.9509    0.3539    0.0000 O   0  0  0  0  0  0  0  0  0  0  0  0
   -3.8817   -1.3846    0.0000 N   0  0  0  0  0  0  0  0  0  0  0  0
   -5.3083   -1.8481    0.0000 C   0  0  0  0  0  0  0  0  0  0  0  0
   -5.3083   -3.3481    0.0000 C   0  0  0  0  0  0  0  0  0  0  0  0
   -3.8817   -3.8116    0.0000 C   0  0  0  0  0  0  0  0  0  0  0  0
   -3.0000   -2.5981    0.0000 C   0  0  0  0  0  0  0  0  0  0  0  0
   -1.5000   -2.5981    0.0000 C   0  0  0  0  0  0  0  0  0  0  0  0
   -0.7500   -1.2990    0.0000 O   0  0  0  0  0  0  0  0  0  0  0  0
   -0.7500   -3.8971    0.0000 N   0  0  0  0  0  0  0  0  0  0  0  0
   -1.5000   -5.1962    0.0000 C   0  0  0  0  0  0  0  0  0  0  0  0
    0.7500   -3.8971    0.0000 C   0  0  0  0  0  0  0  0  0  0  0  0
    1.5000   -2.5981    0.0000 C   0  0  0  0  0  0  0  0  0  0  0  0
    3.0000   -2.5981    0.0000 C   0  0  0  0  0  0  0  0  0  0  0  0
    3.7500   -1.2990    0.0000 C   0  0  0  0  0  0  0  0  0  0  0  0
    5.2500   -1.2990    0.0000 C   0  0  0  0  0  0  0  0  0  0  0  0
    6.0000   -2.5981    0.0000 C   0  0  0  0  0  0  0  0  0  0  0  0
    5.2500   -3.8971    0.0000 C   0  0  0  0  0  0  0  0  0  0  0  0
    3.7500   -3.8971    0.0000 C   0  0  0  0  0  0  0  0  0  0  0  0
    1.5000   -5.1962    0.0000 C   0  0  0  0  0  0  0  0  0  0  0  0
    3.0000   -5.1962    0.0000 O   0  0  0  0  0  0  0  0  0  0  0  0
    0.7500   -6.4952    0.0000 N   0  0  0  0  0  0  0  0  0  0  0  0
    1.5000   -7.7942    0.0000 C   0  0  0  0  0  0  0  0  0  0  0  0
    0.7500   -9.0933    0.0000 C   0  0  0  0  0  0  0  0  0  0  0  0
    1.5000  -10.3923    0.0000 C   0  0  0  0  0  0  0  0  0  0  0  0
    2.2500  -11.6913    0.0000 C   0  0  0  0  0  0  0  0  0  0  0  0
    3.0000   -7.7942    0.0000 C   0  0  0  0  0  0  0  0  0  0  0  0
    3.7500   -6.4952    0.0000 O   0  0  0  0  0  0  0  0  0  0  0  0
    3.7500   -9.0933    0.0000 O   0  0  0  0  0  0  0  0  0  0  0  0
  2  1  1  1
  2  3  1  0
  3  4  1  0
  4  5  1  0
  4  6  1  0
  2  7  1  0
  7  8  2  0
  7  9  1  0
  9 10  1  0
 10 11  1  1
 11 12  1  0
 12 13  1  0
 12 14  1  0
 10 15  1  0
 15 16  2  0
 15 17  1  0
 17 18  1  0
 18 19  1  0
 19 20  1  0
 20 21  1  0
 21 22  1  6
 22 23  2  0
 22 24  1  0
 24 25  1  0
 24 26  1  0
 26 27  1  1
 27 28  1  0
 28 29  2  0
 29 30  1  0
 30 31  2  0
 31 32  1  0
 32 33  2  0
 26 34  1  0
 34 35  2  0
 34 36  1  0
 36 37  1  0
 37 38  1  6
 38 39  1  0
 39 40  3  0
 37 41  1  0
 41 42  2  0
 41 43  1  0
 33 28  1  0
 21 17  1  0
M  END
$$$$

     RDKit          2D

 43 44  0  0  0  0  0  0  0  0999 V2000
   -8.8235    0.2211    0.0000 N   0  0  0  0  0  0  0  0  0  0  0  0
   -8.3600    1.6477    0.0000 C   0  0  0  0  0  0  0  0  0  0  0  0
   -9.3637    2.7625    0.0000 C   0  0  0  0  0  0  0  0  0  0  0  0
  -10.8309    2.4506    0.0000 C   0  0  0  0  0  0  0  0  0  0  0  0
  -11.8346    3.5653    0.0000 C   0  0  0  0  0  0  0  0  0  0  0  0
  -11.2944    1.0240    0.0000 C   0  0  0  0  0  0  0  0  0  0  0  0
   -6.8928    1.9596    0.0000 C   0  0  0  0  0  0  0  0  0  0  0  0
   -6.4292    3.3862    0.0000 O   0  0  0  0  0  0  0  0  0  0  0  0
   -5.8891    0.8449    0.0000 N   0  0  0  0  0  0  0  0  0  0  0  0
   -4.4218    1.1568    0.0000 C   0  0  0  0  0  0  0  0  0  0  0  0
   -3.9583    2.5833    0.0000 C   0  0  0  0  0  0  0  0  0  0  0  0
   -2.4911    2.8952    0.0000 C   0  0  0  0  0  0  0  0  0  0  0  0
   -2.0276    4.3218    0.0000 C   0  0  0  0  0  0  0  0  0  0  0  0
   -1.4874    1.7805    0.0000 C   0  0  0  0  0  0  0  0  0  0  0  0
   -3.4182    0.0420    0.0000 C   0  0  0  0  0  0  0  0  0  0  0  0
   -1.9509    0.3539    0.0000 O   0  0  0  0  0  0  0  0  0  0  0  0
   -3.8817   -1.3846    0.0000 N   0  0  0  0  0  0  0  0  0  0  0  0
   -5.3083   -1.8481    0.0000 C   0  0  0  0  0  0  0  0  0  0  0  0
   -5.3083   -3.3481    0.0000 C   0  0  0  0  0  0  0  0  0  0  0  0
   -3.8817   -3.8116    0.0000 C   0  0  0  0  0  0  0  0  0  0  0  0
   -3.0000   -2.5981    0.0000 C   0  0  0  0  0  0  0  0  0  0  0  0
   -1.5000   -2.5981    0.0000 C   0  0  0  0  0  0  0  0  0  0  0  0
   -0.7500   -1.2990    0.0000 O   0  0  0  0  0  0  0  0  0  0  0  0
   -0.7500   -3.8971    0.0000 N   0  0  0  0  0  0  0  0  0  0  0  0
   -1.5000   -5.1962    0.0000 C   0  0  0  0  0  0  0  0  0  0  0  0
    0.7500   -3.8971    0.0000 C   0  0  0  0  0  0  0  0  0  0  0  0
    1.5000   -2.5981    0.0000 C   0  0  0  0  0  0  0  0  0  0  0  0
    3.0000   -2.5981    0.0000 C   0  0  0  0  0  0  0  0  0  0  0  0
    3.7500   -1.2990    0.0000 C   0  0  0  0  0  0  0  0  0  0  0  0
    5.2500   -1.2990    0.0000 C   0  0  0  0  0  0  0  0  0  0  0  0
    6.0000   -2.5981    0.0000 C   0  0  0  0  0  0  0  0  0  0  0  0
    5.2500   -3.8971    0.0000 C   0  0  0  0  0  0  0  0  0  0  0  0
    3.7500   -3.8971    0.0000 C   0  0  0  0  0  0  0  0  0  0  0  0
    1.5000   -5.1962    0.0000 C   0  0  0  0  0  0  0  0  0  0  0  0
    3.0000   -5.1962    0.0000 O   0  0  0  0  0  0  0  0  0  0  0  0
    0.7500   -6.4952    0.0000 N   0  0  0  0  0  0  0  0  0  0  0  0
    1.5000   -7.7942    0.0000 C   0  0  0  0  0  0  0  0  0  0  0  0
    0.7500   -9.0933    0.0000 C   0  0  0  0  0  0  0  0  0  0  0  0
    1.5000  -10.3923    0.0000 C   0  0  0  0  0  0  0  0  0  0  0  0
    2.2500  -11.6913    0.0000 C   0  0  0  0  0  0  0  0  0  0  0  0
    3.0000   -7.7942    0.0000 C   0  0  0  0  0  0  0  0  0  0  0  0
    3.7500   -6.4952    0.0000 O   0  0  0  0  0  0  0  0  0  0  0  0
    3.7500   -9.0933    0.0000 O   0  0  0  0  0  0  0  0  0  0  0  0
  2  1  1  6
  2  3  1  0
  3  4  1  0
  4  5  1  0
  4  6  1  0
  2  7  1  0
  7  8  2  0
  7  9  1  0
  9 10  1  0
 10 11  1  1
 11 12  1  0
 12 13  1  0
 12 14  1  0
 10 15  1  0
 15 16  2  0
 15 17  1  0
 17 18  1  0
 18 19  1  0
 19 20  1  0
 20 21  1  0
 21 22  1  6
 22 23  2  0
 22 24  1  0
 24 25  1  0
 24 26  1  0
 26 27  1  1
 27 28  1  0
 28 29  2  0
 29 30  1  0
 30 31  2  0
 31 32  1  0
 32 33  2  0
 26 34  1  0
 34 35  2  0
 34 36  1  0
 36 37  1  0
 37 38  1  6
 38 39  1  0
 39 40  3  0
 37 41  1  0
 41 42  2  0
 41 43  1  0
 33 28  1  0
 21 17  1  0
M  END
$$$$

     RDKit          2D

 44 45  0  0  0  0  0  0  0  0999 V2000
   -8.8235    0.2211    0.0000 N   0  0  0  0  0  0  0  0  0  0  0  0
  -10.2907   -0.0907    0.0000 C   0  0  0  0  0  0  0  0  0  0  0  0
   -8.3600    1.6477    0.0000 C   0  0  0  0  0  0  0  0  0  0  0  0
   -9.3637    2.7625    0.0000 C   0  0  0  0  0  0  0  0  0  0  0  0
  -10.8309    2.4506    0.0000 C   0  0  0  0  0  0  0  0  0  0  0  0
  -11.8346    3.5653    0.0000 C   0  0  0  0  0  0  0  0  0  0  0  0
  -11.2944    1.0240    0.0000 C   0  0  0  0  0  0  0  0  0  0  0  0
   -6.8928    1.9596    0.0000 C   0  0  0  0  0  0  0  0  0  0  0  0
   -6.4292    3.3862    0.0000 O   0  0  0  0  0  0  0  0  0  0  0  0
   -5.8891    0.8449    0.0000 N   0  0  0  0  0  0  0  0  0  0  0  0
   -4.4218    1.1568    0.0000 C   0  0  0  0  0  0  0  0  0  0  0  0
   -3.9583    2.5833    0.0000 C   0  0  0  0  0  0  0  0  0  0  0  0
   -2.4911    2.8952    0.0000 C   0  0  0  0  0  0  0  0  0  0  0  0
   -2.0276    4.3218    0.0000 C   0  0  0  0  0  0  0  0  0  0  0  0
   -1.4874    1.7805    0.0000 C   0  0  0  0  0  0  0  0  0  0  0  0
   -3.4182    0.0420    0.0000 C   0  0  0  0  0  0  0  0  0  0  0  0
   -1.9509    0.3539    0.0000 O   0  0  0  0  0  0  0  0  0  0  0  0
   -3.8817   -1.3846    0.0000 N   0  0  0  0  0  0  0  0  0  0  0  0
   -5.3083   -1.8481    0.0000 C   0  0  0  0  0  0  0  0  0  0  0  0
   -5.3083   -3.3481    0.0000 C   0  0  0  0  0  0  0  0  0  0  0  0
   -3.8817   -3.8116    0.0000 C   0  0  0  0  0  0  0  0  0  0  0  0
   -3.0000   -2.5981    0.0000 C   0  0  0  0  0  0  0  0  0  0  0  0
   -1.5000   -2.5981    0.0000 C   0  0  0  0  0  0  0  0  0  0  0  0
   -0.7500   -1.2990    0.0000 O   0  0  0  0  0  0  0  0  0  0  0  0
   -0.7500   -3.8971    0.0000 N   0  0  0  0  0  0  0  0  0  0  0  0
   -1.5000   -5.1962    0.0000 C   0  0  0  0  0  0  0  0  0  0  0  0
    0.7500   -3.8971    0.0000 C   0  0  0  0  0  0  0  0  0  0  0  0
    1.5000   -2.5981    0.0000 C   0  0  0  0  0  0  0  0  0  0  0  0
    3.0000   -2.5981    0.0000 C   0  0  0  0  0  0  0  0  0  0  0  0
    3.7500   -1.2990    0.0000 C   0  0  0  0  0  0  0  0  0  0  0  0
    5.2500   -1.2990    0.0000 C   0  0  0  0  0  0  0  0  0  0  0  0
    6.0000   -2.5981    0.0000 C   0  0  0  0  0  0  0  0  0  0  0  0
    5.2500   -3.8971    0.0000 C   0  0  0  0  0  0  0  0  0  0  0  0
    3.7500   -3.8971    0.0000 C   0  0  0  0  0  0  0  0  0  0  0  0
    1.5000   -5.1962    0.0000 C   0  0  0  0  0  0  0  0  0  0  0  0
    3.0000   -5.1962    0.0000 O   0  0  0  0  0  0  0  0  0  0  0  0
    0.7500   -6.4952    0.0000 N   0  0  0  0  0  0  0  0  0  0  0  0
    1.5000   -7.7942    0.0000 C   0  0  0  0  0  0  0  0  0  0  0  0
    0.7500   -9.0933    0.0000 C   0  0  0  0  0  0  0  0  0  0  0  0
    1.5000  -10.3923    0.0000 C   0  0  0  0  0  0  0  0  0  0  0  0
    2.2500  -11.6913    0.0000 C   0  0  0  0  0  0  0  0  0  0  0  0
    3.0000   -7.7942    0.0000 C   0  0  0  0  0  0  0  0  0  0  0  0
    3.7500   -6.4952    0.0000 O   0  0  0  0  0  0  0  0  0  0  0  0
    3.7500   -9.0933    0.0000 O   0  0  0  0  0  0  0  0  0  0  0  0
  1  2  1  0
  1  3  1  0
  3  4  1  1
  4  5  1  0
  5  6  1  0
  5  7  1  0
  3  8  1  0
  8  9  2  0
  8 10  1  0
 10 11  1  0
 11 12  1  1
 12 13  1  0
 13 14  1  0
 13 15  1  0
 11 16  1  0
 16 17  2  0
 16 18  1  0
 18 19  1  0
 19 20  1  0
 20 21  1  0
 21 22  1  0
 22 23  1  6
 23 24  2  0
 23 25  1  0
 25 26  1  0
 25 27  1  0
 27 28  1  1
 28 29  1  0
 29 30  2  0
 30 31  1  0
 31 32  2  0
 32 33  1  0
 33 34  2  0
 27 35  1  0
 35 36  2  0
 35 37  1  0
 37 38  1  0
 38 39  1  6
 39 40  1  0
 40 41  3  0
 38 42  1  0
 42 43  2  0
 42 44  1  0
 34 29  1  0
 22 18  1  0
M  END
$$$$

     RDKit          2D

 44 45  0  0  0  0  0  0  0  0999 V2000
   -8.8235    0.2211    0.0000 N   0  0  0  0  0  0  0  0  0  0  0  0
  -10.2907   -0.0907    0.0000 C   0  0  0  0  0  0  0  0  0  0  0  0
   -8.3600    1.6477    0.0000 C   0  0  0  0  0  0  0  0  0  0  0  0
   -9.3637    2.7625    0.0000 C   0  0  0  0  0  0  0  0  0  0  0  0
  -10.8309    2.4506    0.0000 C   0  0  0  0  0  0  0  0  0  0  0  0
  -11.8346    3.5653    0.0000 C   0  0  0  0  0  0  0  0  0  0  0  0
  -11.2944    1.0240    0.0000 C   0  0  0  0  0  0  0  0  0  0  0  0
   -6.8928    1.9596    0.0000 C   0  0  0  0  0  0  0  0  0  0  0  0
   -6.4292    3.3862    0.0000 O   0  0  0  0  0  0  0  0  0  0  0  0
   -5.8891    0.8449    0.0000 N   0  0  0  0  0  0  0  0  0  0  0  0
   -4.4218    1.1568    0.0000 C   0  0  0  0  0  0  0  0  0  0  0  0
   -3.9583    2.5833    0.0000 C   0  0  0  0  0  0  0  0  0  0  0  0
   -2.4911    2.8952    0.0000 C   0  0  0  0  0  0  0  0  0  0  0  0
   -2.0276    4.3218    0.0000 C   0  0  0  0  0  0  0  0  0  0  0  0
   -1.4874    1.7805    0.0000 C   0  0  0  0  0  0  0  0  0  0  0  0
   -3.4182    0.0420    0.0000 C   0  0  0  0  0  0  0  0  0  0  0  0
   -1.9509    0.3539    0.0000 O   0  0  0  0  0  0  0  0  0  0  0  0
   -3.8817   -1.3846    0.0000 N   0  0  0  0  0  0  0  0  0  0  0  0
   -5.3083   -1.8481    0.0000 C   0  0  0  0  0  0  0  0  0  0  0  0
   -5.3083   -3.3481    0.0000 C   0  0  0  0  0  0  0  0  0  0  0  0
   -3.8817   -3.8116    0.0000 C   0  0  0  0  0  0  0  0  0  0  0  0
   -3.0000   -2.5981    0.0000 C   0  0  0  0  0  0  0  0  0  0  0  0
   -1.5000   -2.5981    0.0000 C   0  0  0  0  0  0  0  0  0  0  0  0
   -0.7500   -1.2990    0.0000 O   0  0  0  0  0  0  0  0  0  0  0  0
   -0.7500   -3.8971    0.0000 N   0  0  0  0  0  0  0  0  0  0  0  0
   -1.5000   -5.1962    0.0000 C   0  0  0  0  0  0  0  0  0  0  0  0
    0.7500   -3.8971    0.0000 C   0  0  0  0  0  0  0  0  0  0  0  0
    1.5000   -2.5981    0.0000 C   0  0  0  0  0  0  0  0  0  0  0  0
    3.0000   -2.5981    0.0000 C   0  0  0  0  0  0  0  0  0  0  0  0
    3.7500   -1.2990    0.0000 C   0  0  0  0  0  0  0  0  0  0  0  0
    5.2500   -1.2990    0.0000 C   0  0  0  0  0  0  0  0  0  0  0  0
    6.0000   -2.5981    0.0000 C   0  0  0  0  0  0  0  0  0  0  0  0
    5.2500   -3.8971    0.0000 C   0  0  0  0  0  0  0  0  0  0  0  0
    3.7500   -3.8971    0.0000 C   0  0  0  0  0  0  0  0  0  0  0  0
    1.5000   -5.1962    0.0000 C   0  0  0  0  0  0  0  0  0  0  0  0
    3.0000   -5.1962    0.0000 O   0  0  0  0  0  0  0  0  0  0  0  0
    0.7500   -6.4952    0.0000 N   0  0  0  0  0  0  0  0  0  0  0  0
    1.5000   -7.7942    0.0000 C   0  0  0  0  0  0  0  0  0  0  0  0
    0.7500   -9.0933    0.0000 C   0  0  0  0  0  0  0  0  0  0  0  0
    1.5000  -10.3923    0.0000 C   0  0  0  0  0  0  0  0  0  0  0  0
    2.2500  -11.6913    0.0000 C   0  0  0  0  0  0  0  0  0  0  0  0
    3.0000   -7.7942    0.0000 C   0  0  0  0  0  0  0  0  0  0  0  0
    3.7500   -6.4952    0.0000 O   0  0  0  0  0  0  0  0  0  0  0  0
    3.7500   -9.0933    0.0000 O   0  0  0  0  0  0  0  0  0  0  0  0
  1  2  1  0
  1  3  1  0
  3  4  1  6
  4  5  1  0
  5  6  1  0
  5  7  1  0
  3  8  1  0
  8  9  2  0
  8 10  1  0
 10 11  1  0
 11 12  1  1
 12 13  1  0
 13 14  1  0
 13 15  1  0
 11 16  1  0
 16 17  2  0
 16 18  1  0
 18 19  1  0
 19 20  1  0
 20 21  1  0
 21 22  1  0
 22 23  1  6
 23 24  2  0
 23 25  1  0
 25 26  1  0
 25 27  1  0
 27 28  1  1
 28 29  1  0
 29 30  2  0
 30 31  1  0
 31 32  2  0
 32 33  1  0
 33 34  2  0
 27 35  1  0
 35 36  2  0
 35 37  1  0
 37 38  1  0
 38 39  1  6
 39 40  1  0
 40 41  3  0
 38 42  1  0
 42 43  2  0
 42 44  1  0
 34 29  1  0
 22 18  1  0
M  END
$$$$

     RDKit          2D

 43 44  0  0  0  0  0  0  0  0999 V2000
   -8.8235    0.2211    0.0000 N   0  0  0  0  0  0  0  0  0  0  0  0
   -8.3600    1.6477    0.0000 C   0  0  0  0  0  0  0  0  0  0  0  0
   -9.3637    2.7625    0.0000 C   0  0  0  0  0  0  0  0  0  0  0  0
  -10.8309    2.4506    0.0000 C   0  0  0  0  0  0  0  0  0  0  0  0
  -11.8346    3.5653    0.0000 C   0  0  0  0  0  0  0  0  0  0  0  0
  -11.2944    1.0240    0.0000 C   0  0  0  0  0  0  0  0  0  0  0  0
   -6.8928    1.9596    0.0000 C   0  0  0  0  0  0  0  0  0  0  0  0
   -6.4292    3.3862    0.0000 O   0  0  0  0  0  0  0  0  0  0  0  0
   -5.8891    0.8449    0.0000 N   0  0  0  0  0  0  0  0  0  0  0  0
   -4.4218    1.1568    0.0000 C   0  0  0  0  0  0  0  0  0  0  0  0
   -3.9583    2.5833    0.0000 C   0  0  0  0  0  0  0  0  0  0  0  0
   -2.4911    2.8952    0.0000 C   0  0  0  0  0  0  0  0  0  0  0  0
   -2.0276    4.3218    0.0000 C   0  0  0  0  0  0  0  0  0  0  0  0
   -1.4874    1.7805    0.0000 C   0  0  0  0  0  0  0  0  0  0  0  0
   -3.4182    0.0420    0.0000 C   0  0  0  0  0  0  0  0  0  0  0  0
   -1.9509    0.3539    0.0000 O   0  0  0  0  0  0  0  0  0  0  0  0
   -3.8817   -1.3846    0.0000 N   0  0  0  0  0  0  0  0  0  0  0  0
   -5.3083   -1.8481    0.0000 C   0  0  0  0  0  0  0  0  0  0  0  0
   -5.3083   -3.3481    0.0000 C   0  0  0  0  0  0  0  0  0  0  0  0
   -3.8817   -3.8116    0.0000 C   0  0  0  0  0  0  0  0  0  0  0  0
   -3.0000   -2.5981    0.0000 C   0  0  0  0  0  0  0  0  0  0  0  0
   -1.5000   -2.5981    0.0000 C   0  0  0  0  0  0  0  0  0  0  0  0
   -0.7500   -1.2990    0.0000 O   0  0  0  0  0  0  0  0  0  0  0  0
   -0.7500   -3.8971    0.0000 N   0  0  0  0  0  0  0  0  0  0  0  0
   -1.5000   -5.1962    0.0000 C   0  0  0  0  0  0  0  0  0  0  0  0
    0.7500   -3.8971    0.0000 C   0  0  0  0  0  0  0  0  0  0  0  0
    1.5000   -2.5981    0.0000 C   0  0  0  0  0  0  0  0  0  0  0  0
    3.0000   -2.5981    0.0000 C   0  0  0  0  0  0  0  0  0  0  0  0
    3.7500   -1.2990    0.0000 C   0  0  0  0  0  0  0  0  0  0  0  0
    5.2500   -1.2990    0.0000 C   0  0  0  0  0  0  0  0  0  0  0  0
    6.0000   -2.5981    0.0000 C   0  0  0  0  0  0  0  0  0  0  0  0
    5.2500   -3.8971    0.0000 C   0  0  0  0  0  0  0  0  0  0  0  0
    3.7500   -3.8971    0.0000 C   0  0  0  0  0  0  0  0  0  0  0  0
    1.5000   -5.1962    0.0000 C   0  0  0  0  0  0  0  0  0  0  0  0
    3.0000   -5.1962    0.0000 O   0  0  0  0  0  0  0  0  0  0  0  0
    0.7500   -6.4952    0.0000 N   0  0  0  0  0  0  0  0  0  0  0  0
    1.5000   -7.7942    0.0000 C   0  0  0  0  0  0  0  0  0  0  0  0
    0.7500   -9.0933    0.0000 C   0  0  0  0  0  0  0  0  0  0  0  0
    1.5000  -10.3923    0.0000 C   0  0  0  0  0  0  0  0  0  0  0  0
    2.2500  -11.6913    0.0000 C   0  0  0  0  0  0  0  0  0  0  0  0
    3.0000   -7.7942    0.0000 C   0  0  0  0  0  0  0  0  0  0  0  0
    3.7500   -6.4952    0.0000 O   0  0  0  0  0  0  0  0  0  0  0  0
    3.7500   -9.0933    0.0000 O   0  0  0  0  0  0  0  0  0  0  0  0
  2  1  1  1
  2  3  1  0
  3  4  1  0
  4  5  1  0
  4  6  1  0
  2  7  1  0
  7  8  2  0
  7  9  1  0
  9 10  1  0
 10 11  1  6
 11 12  1  0
 12 13  1  0
 12 14  1  0
 10 15  1  0
 15 16  2  0
 15 17  1  0
 17 18  1  0
 18 19  1  0
 19 20  1  0
 20 21  1  0
 21 22  1  6
 22 23  2  0
 22 24  1  0
 24 25  1  0
 24 26  1  0
 26 27  1  1
 27 28  1  0
 28 29  2  0
 29 30  1  0
 30 31  2  0
 31 32  1  0
 32 33  2  0
 26 34  1  0
 34 35  2  0
 34 36  1  0
 36 37  1  0
 37 38  1  6
 38 39  1  0
 39 40  3  0
 37 41  1  0
 41 42  2  0
 41 43  1  0
 33 28  1  0
 21 17  1  0
M  END
$$$$

     RDKit          2D

 43 44  0  0  0  0  0  0  0  0999 V2000
   -8.8235    0.2211    0.0000 N   0  0  0  0  0  0  0  0  0  0  0  0
   -8.3600    1.6477    0.0000 C   0  0  0  0  0  0  0  0  0  0  0  0
   -9.3637    2.7625    0.0000 C   0  0  0  0  0  0  0  0  0  0  0  0
  -10.8309    2.4506    0.0000 C   0  0  0  0  0  0  0  0  0  0  0  0
  -11.8346    3.5653    0.0000 C   0  0  0  0  0  0  0  0  0  0  0  0
  -11.2944    1.0240    0.0000 C   0  0  0  0  0  0  0  0  0  0  0  0
   -6.8928    1.9596    0.0000 C   0  0  0  0  0  0  0  0  0  0  0  0
   -6.4292    3.3862    0.0000 O   0  0  0  0  0  0  0  0  0  0  0  0
   -5.8891    0.8449    0.0000 N   0  0  0  0  0  0  0  0  0  0  0  0
   -4.4218    1.1568    0.0000 C   0  0  0  0  0  0  0  0  0  0  0  0
   -3.9583    2.5833    0.0000 C   0  0  0  0  0  0  0  0  0  0  0  0
   -2.4911    2.8952    0.0000 C   0  0  0  0  0  0  0  0  0  0  0  0
   -2.0276    4.3218    0.0000 C   0  0  0  0  0  0  0  0  0  0  0  0
   -1.4874    1.7805    0.0000 C   0  0  0  0  0  0  0  0  0  0  0  0
   -3.4182    0.0420    0.0000 C   0  0  0  0  0  0  0  0  0  0  0  0
   -1.9509    0.3539    0.0000 O   0  0  0  0  0  0  0  0  0  0  0  0
   -3.8817   -1.3846    0.0000 N   0  0  0  0  0  0  0  0  0  0  0  0
   -5.3083   -1.8481    0.0000 C   0  0  0  0  0  0  0  0  0  0  0  0
   -5.3083   -3.3481    0.0000 C   0  0  0  0  0  0  0  0  0  0  0  0
   -3.8817   -3.8116    0.0000 C   0  0  0  0  0  0  0  0  0  0  0  0
   -3.0000   -2.5981    0.0000 C   0  0  0  0  0  0  0  0  0  0  0  0
   -1.5000   -2.5981    0.0000 C   0  0  0  0  0  0  0  0  0  0  0  0
   -0.7500   -1.2990    0.0000 O   0  0  0  0  0  0  0  0  0  0  0  0
   -0.7500   -3.8971    0.0000 N   0  0  0  0  0  0  0  0  0  0  0  0
   -1.5000   -5.1962    0.0000 C   0  0  0  0  0  0  0  0  0  0  0  0
    0.7500   -3.8971    0.0000 C   0  0  0  0  0  0  0  0  0  0  0  0
    1.5000   -2.5981    0.0000 C   0  0  0  0  0  0  0  0  0  0  0  0
    3.0000   -2.5981    0.0000 C   0  0  0  0  0  0  0  0  0  0  0  0
    3.7500   -1.2990    0.0000 C   0  0  0  0  0  0  0  0  0  0  0  0
    5.2500   -1.2990    0.0000 C   0  0  0  0  0  0  0  0  0  0  0  0
    6.0000   -2.5981    0.0000 C   0  0  0  0  0  0  0  0  0  0  0  0
    5.2500   -3.8971    0.0000 C   0  0  0  0  0  0  0  0  0  0  0  0
    3.7500   -3.8971    0.0000 C   0  0  0  0  0  0  0  0  0  0  0  0
    1.5000   -5.1962    0.0000 C   0  0  0  0  0  0  0  0  0  0  0  0
    3.0000   -5.1962    0.0000 O   0  0  0  0  0  0  0  0  0  0  0  0
    0.7500   -6.4952    0.0000 N   0  0  0  0  0  0  0  0  0  0  0  0
    1.5000   -7.7942    0.0000 C   0  0  0  0  0  0  0  0  0  0  0  0
    0.7500   -9.0933    0.0000 C   0  0  0  0  0  0  0  0  0  0  0  0
    1.5000  -10.3923    0.0000 C   0  0  0  0  0  0  0  0  0  0  0  0
    2.2500  -11.6913    0.0000 C   0  0  0  0  0  0  0  0  0  0  0  0
    3.0000   -7.7942    0.0000 C   0  0  0  0  0  0  0  0  0  0  0  0
    3.7500   -6.4952    0.0000 O   0  0  0  0  0  0  0  0  0  0  0  0
    3.7500   -9.0933    0.0000 O   0  0  0  0  0  0  0  0  0  0  0  0
  2  1  1  6
  2  3  1  0
  3  4  1  0
  4  5  1  0
  4  6  1  0
  2  7  1  0
  7  8  2  0
  7  9  1  0
  9 10  1  0
 10 11  1  6
 11 12  1  0
 12 13  1  0
 12 14  1  0
 10 15  1  0
 15 16  2  0
 15 17  1  0
 17 18  1  0
 18 19  1  0
 19 20  1  0
 20 21  1  0
 21 22  1  6
 22 23  2  0
 22 24  1  0
 24 25  1  0
 24 26  1  0
 26 27  1  1
 27 28  1  0
 28 29  2  0
 29 30  1  0
 30 31  2  0
 31 32  1  0
 32 33  2  0
 26 34  1  0
 34 35  2  0
 34 36  1  0
 36 37  1  0
 37 38  1  6
 38 39  1  0
 39 40  3  0
 37 41  1  0
 41 42  2  0
 41 43  1  0
 33 28  1  0
 21 17  1  0
M  END
$$$$

     RDKit          2D

 44 45  0  0  0  0  0  0  0  0999 V2000
   -8.8235    0.2211    0.0000 N   0  0  0  0  0  0  0  0  0  0  0  0
  -10.2907   -0.0907    0.0000 C   0  0  0  0  0  0  0  0  0  0  0  0
   -8.3600    1.6477    0.0000 C   0  0  0  0  0  0  0  0  0  0  0  0
   -9.3637    2.7625    0.0000 C   0  0  0  0  0  0  0  0  0  0  0  0
  -10.8309    2.4506    0.0000 C   0  0  0  0  0  0  0  0  0  0  0  0
  -11.8346    3.5653    0.0000 C   0  0  0  0  0  0  0  0  0  0  0  0
  -11.2944    1.0240    0.0000 C   0  0  0  0  0  0  0  0  0  0  0  0
   -6.8928    1.9596    0.0000 C   0  0  0  0  0  0  0  0  0  0  0  0
   -6.4292    3.3862    0.0000 O   0  0  0  0  0  0  0  0  0  0  0  0
   -5.8891    0.8449    0.0000 N   0  0  0  0  0  0  0  0  0  0  0  0
   -4.4218    1.1568    0.0000 C   0  0  0  0  0  0  0  0  0  0  0  0
   -3.9583    2.5833    0.0000 C   0  0  0  0  0  0  0  0  0  0  0  0
   -2.4911    2.8952    0.0000 C   0  0  0  0  0  0  0  0  0  0  0  0
   -2.0276    4.3218    0.0000 C   0  0  0  0  0  0  0  0  0  0  0  0
   -1.4874    1.7805    0.0000 C   0  0  0  0  0  0  0  0  0  0  0  0
   -3.4182    0.0420    0.0000 C   0  0  0  0  0  0  0  0  0  0  0  0
   -1.9509    0.3539    0.0000 O   0  0  0  0  0  0  0  0  0  0  0  0
   -3.8817   -1.3846    0.0000 N   0  0  0  0  0  0  0  0  0  0  0  0
   -5.3083   -1.8481    0.0000 C   0  0  0  0  0  0  0  0  0  0  0  0
   -5.3083   -3.3481    0.0000 C   0  0  0  0  0  0  0  0  0  0  0  0
   -3.8817   -3.8116    0.0000 C   0  0  0  0  0  0  0  0  0  0  0  0
   -3.0000   -2.5981    0.0000 C   0  0  0  0  0  0  0  0  0  0  0  0
   -1.5000   -2.5981    0.0000 C   0  0  0  0  0  0  0  0  0  0  0  0
   -0.7500   -1.2990    0.0000 O   0  0  0  0  0  0  0  0  0  0  0  0
   -0.7500   -3.8971    0.0000 N   0  0  0  0  0  0  0  0  0  0  0  0
   -1.5000   -5.1962    0.0000 C   0  0  0  0  0  0  0  0  0  0  0  0
    0.7500   -3.8971    0.0000 C   0  0  0  0  0  0  0  0  0  0  0  0
    1.5000   -2.5981    0.0000 C   0  0  0  0  0  0  0  0  0  0  0  0
    3.0000   -2.5981    0.0000 C   0  0  0  0  0  0  0  0  0  0  0  0
    3.7500   -1.2990    0.0000 C   0  0  0  0  0  0  0  0  0  0  0  0
    5.2500   -1.2990    0.0000 C   0  0  0  0  0  0  0  0  0  0  0  0
    6.0000   -2.5981    0.0000 C   0  0  0  0  0  0  0  0  0  0  0  0
    5.2500   -3.8971    0.0000 C   0  0  0  0  0  0  0  0  0  0  0  0
    3.7500   -3.8971    0.0000 C   0  0  0  0  0  0  0  0  0  0  0  0
    1.5000   -5.1962    0.0000 C   0  0  0  0  0  0  0  0  0  0  0  0
    3.0000   -5.1962    0.0000 O   0  0  0  0  0  0  0  0  0  0  0  0
    0.7500   -6.4952    0.0000 N   0  0  0  0  0  0  0  0  0  0  0  0
    1.5000   -7.7942    0.0000 C   0  0  0  0  0  0  0  0  0  0  0  0
    0.7500   -9.0933    0.0000 C   0  0  0  0  0  0  0  0  0  0  0  0
    1.5000  -10.3923    0.0000 C   0  0  0  0  0  0  0  0  0  0  0  0
    2.2500  -11.6913    0.0000 C   0  0  0  0  0  0  0  0  0  0  0  0
    3.0000   -7.7942    0.0000 C   0  0  0  0  0  0  0  0  0  0  0  0
    3.7500   -6.4952    0.0000 O   0  0  0  0  0  0  0  0  0  0  0  0
    3.7500   -9.0933    0.0000 O   0  0  0  0  0  0  0  0  0  0  0  0
  1  2  1  0
  1  3  1  0
  3  4  1  1
  4  5  1  0
  5  6  1  0
  5  7  1  0
  3  8  1  0
  8  9  2  0
  8 10  1  0
 10 11  1  0
 11 12  1  6
 12 13  1  0
 13 14  1  0
 13 15  1  0
 11 16  1  0
 16 17  2  0
 16 18  1  0
 18 19  1  0
 19 20  1  0
 20 21  1  0
 21 22  1  0
 22 23  1  6
 23 24  2  0
 23 25  1  0
 25 26  1  0
 25 27  1  0
 27 28  1  1
 28 29  1  0
 29 30  2  0
 30 31  1  0
 31 32  2  0
 32 33  1  0
 33 34  2  0
 27 35  1  0
 35 36  2  0
 35 37  1  0
 37 38  1  0
 38 39  1  6
 39 40  1  0
 40 41  3  0
 38 42  1  0
 42 43  2  0
 42 44  1  0
 34 29  1  0
 22 18  1  0
M  END
$$$$

     RDKit          2D

 44 45  0  0  0  0  0  0  0  0999 V2000
   -8.8235    0.2211    0.0000 N   0  0  0  0  0  0  0  0  0  0  0  0
  -10.2907   -0.0907    0.0000 C   0  0  0  0  0  0  0  0  0  0  0  0
   -8.3600    1.6477    0.0000 C   0  0  0  0  0  0  0  0  0  0  0  0
   -9.3637    2.7625    0.0000 C   0  0  0  0  0  0  0  0  0  0  0  0
  -10.8309    2.4506    0.0000 C   0  0  0  0  0  0  0  0  0  0  0  0
  -11.8346    3.5653    0.0000 C   0  0  0  0  0  0  0  0  0  0  0  0
  -11.2944    1.0240    0.0000 C   0  0  0  0  0  0  0  0  0  0  0  0
   -6.8928    1.9596    0.0000 C   0  0  0  0  0  0  0  0  0  0  0  0
   -6.4292    3.3862    0.0000 O   0  0  0  0  0  0  0  0  0  0  0  0
   -5.8891    0.8449    0.0000 N   0  0  0  0  0  0  0  0  0  0  0  0
   -4.4218    1.1568    0.0000 C   0  0  0  0  0  0  0  0  0  0  0  0
   -3.9583    2.5833    0.0000 C   0  0  0  0  0  0  0  0  0  0  0  0
   -2.4911    2.8952    0.0000 C   0  0  0  0  0  0  0  0  0  0  0  0
   -2.0276    4.3218    0.0000 C   0  0  0  0  0  0  0  0  0  0  0  0
   -1.4874    1.7805    0.0000 C   0  0  0  0  0  0  0  0  0  0  0  0
   -3.4182    0.0420    0.0000 C   0  0  0  0  0  0  0  0  0  0  0  0
   -1.9509    0.3539    0.0000 O   0  0  0  0  0  0  0  0  0  0  0  0
   -3.8817   -1.3846    0.0000 N   0  0  0  0  0  0  0  0  0  0  0  0
   -5.3083   -1.8481    0.0000 C   0  0  0  0  0  0  0  0  0  0  0  0
   -5.3083   -3.3481    0.0000 C   0  0  0  0  0  0  0  0  0  0  0  0
   -3.8817   -3.8116    0.0000 C   0  0  0  0  0  0  0  0  0  0  0  0
   -3.0000   -2.5981    0.0000 C   0  0  0  0  0  0  0  0  0  0  0  0
   -1.5000   -2.5981    0.0000 C   0  0  0  0  0  0  0  0  0  0  0  0
   -0.7500   -1.2990    0.0000 O   0  0  0  0  0  0  0  0  0  0  0  0
   -0.7500   -3.8971    0.0000 N   0  0  0  0  0  0  0  0  0  0  0  0
   -1.5000   -5.1962    0.0000 C   0  0  0  0  0  0  0  0  0  0  0  0
    0.7500   -3.8971    0.0000 C   0  0  0  0  0  0  0  0  0  0  0  0
    1.5000   -2.5981    0.0000 C   0  0  0  0  0  0  0  0  0  0  0  0
    3.0000   -2.5981    0.0000 C   0  0  0  0  0  0  0  0  0  0  0  0
    3.7500   -1.2990    0.0000 C   0  0  0  0  0  0  0  0  0  0  0  0
    5.2500   -1.2990    0.0000 C   0  0  0  0  0  0  0  0  0  0  0  0
    6.0000   -2.5981    0.0000 C   0  0  0  0  0  0  0  0  0  0  0  0
    5.2500   -3.8971    0.0000 C   0  0  0  0  0  0  0  0  0  0  0  0
    3.7500   -3.8971    0.0000 C   0  0  0  0  0  0  0  0  0  0  0  0
    1.5000   -5.1962    0.0000 C   0  0  0  0  0  0  0  0  0  0  0  0
    3.0000   -5.1962    0.0000 O   0  0  0  0  0  0  0  0  0  0  0  0
    0.7500   -6.4952    0.0000 N   0  0  0  0  0  0  0  0  0  0  0  0
    1.5000   -7.7942    0.0000 C   0  0  0  0  0  0  0  0  0  0  0  0
    0.7500   -9.0933    0.0000 C   0  0  0  0  0  0  0  0  0  0  0  0
    1.5000  -10.3923    0.0000 C   0  0  0  0  0  0  0  0  0  0  0  0
    2.2500  -11.6913    0.0000 C   0  0  0  0  0  0  0  0  0  0  0  0
    3.0000   -7.7942    0.0000 C   0  0  0  0  0  0  0  0  0  0  0  0
    3.7500   -6.4952    0.0000 O   0  0  0  0  0  0  0  0  0  0  0  0
    3.7500   -9.0933    0.0000 O   0  0  0  0  0  0  0  0  0  0  0  0
  1  2  1  0
  1  3  1  0
  3  4  1  6
  4  5  1  0
  5  6  1  0
  5  7  1  0
  3  8  1  0
  8  9  2  0
  8 10  1  0
 10 11  1  0
 11 12  1  6
 12 13  1  0
 13 14  1  0
 13 15  1  0
 11 16  1  0
 16 17  2  0
 16 18  1  0
 18 19  1  0
 19 20  1  0
 20 21  1  0
 21 22  1  0
 22 23  1  6
 23 24  2  0
 23 25  1  0
 25 26  1  0
 25 27  1  0
 27 28  1  1
 28 29  1  0
 29 30  2  0
 30 31  1  0
 31 32  2  0
 32 33  1  0
 33 34  2  0
 27 35  1  0
 35 36  2  0
 35 37  1  0
 37 38  1  0
 38 39  1  6
 39 40  1  0
 40 41  3  0
 38 42  1  0
 42 43  2  0
 42 44  1  0
 34 29  1  0
 22 18  1  0
M  END
$$$$

     RDKit          2D

 44 45  0  0  0  0  0  0  0  0999 V2000
   -3.0313    5.4365    0.0000 N   0  0  0  0  0  0  0  0  0  0  0  0
   -2.0276    4.3218    0.0000 C   0  0  0  0  0  0  0  0  0  0  0  0
   -0.5604    4.6337    0.0000 C   0  0  0  0  0  0  0  0  0  0  0  0
   -0.0968    6.0602    0.0000 C   0  0  0  0  0  0  0  0  0  0  0  0
    1.3704    6.3721    0.0000 C   0  0  0  0  0  0  0  0  0  0  0  0
   -1.1005    7.1750    0.0000 C   0  0  0  0  0  0  0  0  0  0  0  0
   -2.4911    2.8952    0.0000 C   0  0  0  0  0  0  0  0  0  0  0  0
   -1.4874    1.7805    0.0000 O   0  0  0  0  0  0  0  0  0  0  0  0
   -3.9583    2.5833    0.0000 N   0  0  0  0  0  0  0  0  0  0  0  0
   -4.9620    3.6981    0.0000 C   0  0  0  0  0  0  0  0  0  0  0  0
   -4.4218    1.1568    0.0000 C   0  0  0  0  0  0  0  0  0  0  0  0
   -5.8891    0.8449    0.0000 C   0  0  0  0  0  0  0  0  0  0  0  0
   -6.8928    1.9596    0.0000 C   0  0  0  0  0  0  0  0  0  0  0  0
   -8.3600    1.6477    0.0000 C   0  0  0  0  0  0  0  0  0  0  0  0
   -6.4292    3.3862    0.0000 C   0  0  0  0  0  0  0  0  0  0  0  0
   -3.4182    0.0420    0.0000 C   0  0  0  0  0  0  0  0  0  0  0  0
   -1.9509    0.3539    0.0000 O   0  0  0  0  0  0  0  0  0  0  0  0
   -3.8817   -1.3846    0.0000 N   0  0  0  0  0  0  0  0  0  0  0  0
   -5.3083   -1.8481    0.0000 C   0  0  0  0  0  0  0  0  0  0  0  0
   -5.3083   -3.3481    0.0000 C   0  0  0  0  0  0  0  0  0  0  0  0
   -3.8817   -3.8116    0.0000 C   0  0  0  0  0  0  0  0  0  0  0  0
   -3.0000   -2.5981    0.0000 C   0  0  0  0  0  0  0  0  0  0  0  0
   -1.5000   -2.5981    0.0000 C   0  0  0  0  0  0  0  0  0  0  0  0
   -0.7500   -1.2990    0.0000 O   0  0  0  0  0  0  0  0  0  0  0  0
   -0.7500   -3.8971    0.0000 N   0  0  0  0  0  0  0  0  0  0  0  0
   -1.5000   -5.1962    0.0000 C   0  0  0  0  0  0  0  0  0  0  0  0
    0.7500   -3.8971    0.0000 C   0  0  0  0  0  0  0  0  0  0  0  0
    1.5000   -2.5981    0.0000 C   0  0  0  0  0  0  0  0  0  0  0  0
    3.0000   -2.5981    0.0000 C   0  0  0  0  0  0  0  0  0  0  0  0
    3.7500   -1.2990    0.0000 C   0  0  0  0  0  0  0  0  0  0  0  0
    5.2500   -1.2990    0.0000 C   0  0  0  0  0  0  0  0  0  0  0  0
    6.0000   -2.5981    0.0000 C   0  0  0  0  0  0  0  0  0  0  0  0
    5.2500   -3.8971    0.0000 C   0  0  0  0  0  0  0  0  0  0  0  0
    3.7500   -3.8971    0.0000 C   0  0  0  0  0  0  0  0  0  0  0  0
    1.5000   -5.1962    0.0000 C   0  0  0  0  0  0  0  0  0  0  0  0
    3.0000   -5.1962    0.0000 O   0  0  0  0  0  0  0  0  0  0  0  0
    0.7500   -6.4952    0.0000 N   0  0  0  0  0  0  0  0  0  0  0  0
    1.5000   -7.7942    0.0000 C   0  0  0  0  0  0  0  0  0  0  0  0
    0.7500   -9.0933    0.0000 C   0  0  0  0  0  0  0  0  0  0  0  0
    1.5000  -10.3923    0.0000 C   0  0  0  0  0  0  0  0  0  0  0  0
    2.2500  -11.6913    0.0000 C   0  0  0  0  0  0  0  0  0  0  0  0
    3.0000   -7.7942    0.0000 C   0  0  0  0  0  0  0  0  0  0  0  0
    3.7500   -6.4952    0.0000 O   0  0  0  0  0  0  0  0  0  0  0  0
    3.7500   -9.0933    0.0000 O   0  0  0  0  0  0  0  0  0  0  0  0
  2  1  1  1
  2  3  1  0
  3  4  1  0
  4  5  1  0
  4  6  1  0
  2  7  1  0
  7  8  2  0
  7  9  1  0
  9 10  1  0
  9 11  1  0
 11 12  1  6
 12 13  1  0
 13 14  1  0
 13 15  1  0
 11 16  1  0
 16 17  2  0
 16 18  1  0
 18 19  1  0
 19 20  1  0
 20 21  1  0
 21 22  1  0
 22 23  1  6
 23 24  2  0
 23 25  1  0
 25 26  1  0
 25 27  1  0
 27 28  1  1
 28 29  1  0
 29 30  2  0
 30 31  1  0
 31 32  2  0
 32 33  1  0
 33 34  2  0
 27 35  1  0
 35 36  2  0
 35 37  1  0
 37 38  1  0
 38 39  1  6
 39 40  1  0
 40 41  3  0
 38 42  1  0
 42 43  2  0
 42 44  1  0
 34 29  1  0
 22 18  1  0
M  END
$$$$

     RDKit          2D

 44 45  0  0  0  0  0  0  0  0999 V2000
   -3.0313    5.4365    0.0000 N   0  0  0  0  0  0  0  0  0  0  0  0
   -2.0276    4.3218    0.0000 C   0  0  0  0  0  0  0  0  0  0  0  0
   -0.5604    4.6337    0.0000 C   0  0  0  0  0  0  0  0  0  0  0  0
   -0.0968    6.0602    0.0000 C   0  0  0  0  0  0  0  0  0  0  0  0
    1.3704    6.3721    0.0000 C   0  0  0  0  0  0  0  0  0  0  0  0
   -1.1005    7.1750    0.0000 C   0  0  0  0  0  0  0  0  0  0  0  0
   -2.4911    2.8952    0.0000 C   0  0  0  0  0  0  0  0  0  0  0  0
   -1.4874    1.7805    0.0000 O   0  0  0  0  0  0  0  0  0  0  0  0
   -3.9583    2.5833    0.0000 N   0  0  0  0  0  0  0  0  0  0  0  0
   -4.9620    3.6981    0.0000 C   0  0  0  0  0  0  0  0  0  0  0  0
   -4.4218    1.1568    0.0000 C   0  0  0  0  0  0  0  0  0  0  0  0
   -5.8891    0.8449    0.0000 C   0  0  0  0  0  0  0  0  0  0  0  0
   -6.8928    1.9596    0.0000 C   0  0  0  0  0  0  0  0  0  0  0  0
   -8.3600    1.6477    0.0000 C   0  0  0  0  0  0  0  0  0  0  0  0
   -6.4292    3.3862    0.0000 C   0  0  0  0  0  0  0  0  0  0  0  0
   -3.4182    0.0420    0.0000 C   0  0  0  0  0  0  0  0  0  0  0  0
   -1.9509    0.3539    0.0000 O   0  0  0  0  0  0  0  0  0  0  0  0
   -3.8817   -1.3846    0.0000 N   0  0  0  0  0  0  0  0  0  0  0  0
   -5.3083   -1.8481    0.0000 C   0  0  0  0  0  0  0  0  0  0  0  0
   -5.3083   -3.3481    0.0000 C   0  0  0  0  0  0  0  0  0  0  0  0
   -3.8817   -3.8116    0.0000 C   0  0  0  0  0  0  0  0  0  0  0  0
   -3.0000   -2.5981    0.0000 C   0  0  0  0  0  0  0  0  0  0  0  0
   -1.5000   -2.5981    0.0000 C   0  0  0  0  0  0  0  0  0  0  0  0
   -0.7500   -1.2990    0.0000 O   0  0  0  0  0  0  0  0  0  0  0  0
   -0.7500   -3.8971    0.0000 N   0  0  0  0  0  0  0  0  0  0  0  0
   -1.5000   -5.1962    0.0000 C   0  0  0  0  0  0  0  0  0  0  0  0
    0.7500   -3.8971    0.0000 C   0  0  0  0  0  0  0  0  0  0  0  0
    1.5000   -2.5981    0.0000 C   0  0  0  0  0  0  0  0  0  0  0  0
    3.0000   -2.5981    0.0000 C   0  0  0  0  0  0  0  0  0  0  0  0
    3.7500   -1.2990    0.0000 C   0  0  0  0  0  0  0  0  0  0  0  0
    5.2500   -1.2990    0.0000 C   0  0  0  0  0  0  0  0  0  0  0  0
    6.0000   -2.5981    0.0000 C   0  0  0  0  0  0  0  0  0  0  0  0
    5.2500   -3.8971    0.0000 C   0  0  0  0  0  0  0  0  0  0  0  0
    3.7500   -3.8971    0.0000 C   0  0  0  0  0  0  0  0  0  0  0  0
    1.5000   -5.1962    0.0000 C   0  0  0  0  0  0  0  0  0  0  0  0
    3.0000   -5.1962    0.0000 O   0  0  0  0  0  0  0  0  0  0  0  0
    0.7500   -6.4952    0.0000 N   0  0  0  0  0  0  0  0  0  0  0  0
    1.5000   -7.7942    0.0000 C   0  0  0  0  0  0  0  0  0  0  0  0
    0.7500   -9.0933    0.0000 C   0  0  0  0  0  0  0  0  0  0  0  0
    1.5000  -10.3923    0.0000 C   0  0  0  0  0  0  0  0  0  0  0  0
    2.2500  -11.6913    0.0000 C   0  0  0  0  0  0  0  0  0  0  0  0
    3.0000   -7.7942    0.0000 C   0  0  0  0  0  0  0  0  0  0  0  0
    3.7500   -6.4952    0.0000 O   0  0  0  0  0  0  0  0  0  0  0  0
    3.7500   -9.0933    0.0000 O   0  0  0  0  0  0  0  0  0  0  0  0
  2  1  1  6
  2  3  1  0
  3  4  1  0
  4  5  1  0
  4  6  1  0
  2  7  1  0
  7  8  2  0
  7  9  1  0
  9 10  1  0
  9 11  1  0
 11 12  1  6
 12 13  1  0
 13 14  1  0
 13 15  1  0
 11 16  1  0
 16 17  2  0
 16 18  1  0
 18 19  1  0
 19 20  1  0
 20 21  1  0
 21 22  1  0
 22 23  1  6
 23 24  2  0
 23 25  1  0
 25 26  1  0
 25 27  1  0
 27 28  1  1
 28 29  1  0
 29 30  2  0
 30 31  1  0
 31 32  2  0
 32 33  1  0
 33 34  2  0
 27 35  1  0
 35 36  2  0
 35 37  1  0
 37 38  1  0
 38 39  1  6
 39 40  1  0
 40 41  3  0
 38 42  1  0
 42 43  2  0
 42 44  1  0
 34 29  1  0
 22 18  1  0
M  END
$$$$

     RDKit          2D

 28 28  0  0  0  0  0  0  0  0999 V2000
    1.5000   -5.1962    0.0000 N   0  0  0  0  0  0  0  0  0  0  0  0
    0.7500   -3.8971    0.0000 C   0  0  0  0  0  0  0  0  0  0  0  0
   -0.7500   -3.8971    0.0000 C   0  0  0  0  0  0  0  0  0  0  0  0
   -1.5000   -5.1962    0.0000 C   0  0  0  0  0  0  0  0  0  0  0  0
   -3.0000   -5.1962    0.0000 C   0  0  0  0  0  0  0  0  0  0  0  0
   -0.7500   -6.4952    0.0000 C   0  0  0  0  0  0  0  0  0  0  0  0
    1.5000   -2.5981    0.0000 C   0  0  0  0  0  0  0  0  0  0  0  0
    0.7500   -1.2990    0.0000 O   0  0  0  0  0  0  0  0  0  0  0  0
    3.0000   -2.5981    0.0000 N   0  0  0  0  0  0  0  0  0  0  0  0
    3.7500   -3.8971    0.0000 C   0  0  0  0  0  0  0  0  0  0  0  0
    3.7500   -1.2990    0.0000 C   0  0  0  0  0  0  0  0  0  0  0  0
    3.0000    0.0000    0.0000 C   0  0  0  0  0  0  0  0  0  0  0  0
    3.7500    1.2990    0.0000 C   0  0  0  0  0  0  0  0  0  0  0  0
    3.0000    2.5981    0.0000 C   0  0  0  0  0  0  0  0  0  0  0  0
    3.7500    3.8971    0.0000 C   0  0  0  0  0  0  0  0  0  0  0  0
    5.2500    3.8971    0.0000 C   0  0  0  0  0  0  0  0  0  0  0  0
    6.0000    2.5981    0.0000 C   0  0  0  0  0  0  0  0  0  0  0  0
    5.2500    1.2990    0.0000 C   0  0  0  0  0  0  0  0  0  0  0  0
    5.2500   -1.2990    0.0000 C   0  0  0  0  0  0  0  0  0  0  0  0
    6.0000    0.0000    0.0000 O   0  0  0  0  0  0  0  0  0  0  0  0
    6.0000   -2.5981    0.0000 N   0  0  0  0  0  0  0  0  0  0  0  0
    7.5000   -2.5981    0.0000 C   0  0  0  0  0  0  0  0  0  0  0  0
    8.2500   -3.8971    0.0000 C   0  0  0  0  0  0  0  0  0  0  0  0
    9.7500   -3.8971    0.0000 C   0  0  0  0  0  0  0  0  0  0  0  0
   11.2500   -3.8971    0.0000 C   0  0  0  0  0  0  0  0  0  0  0  0
    8.2500   -1.2990    0.0000 C   0  0  0  0  0  0  0  0  0  0  0  0
    7.5000    0.0000    0.0000 O   0  0  0  0  0  0  0  0  0  0  0  0
    9.7500   -1.2990    0.0000 O   0  0  0  0  0  0  0  0  0  0  0  0
  2  1  1  1
  2  3  1  0
  3  4  1  0
  4  5  1  0
  4  6  1  0
  2  7  1  0
  7  8  2  0
  7  9  1  0
  9 10  1  0
  9 11  1  0
 11 12  1  6
 12 13  1  0
 13 14  2  0
 14 15  1  0
 15 16  2  0
 16 17  1  0
 17 18  2  0
 11 19  1  0
 19 20  2  0
 19 21  1  0
 21 22  1  0
 22 23  1  6
 23 24  1  0
 24 25  3  0
 22 26  1  0
 26 27  2  0
 26 28  1  0
 18 13  1  0
M  END
$$$$

     RDKit          2D

 28 28  0  0  0  0  0  0  0  0999 V2000
    1.5000   -5.1962    0.0000 N   0  0  0  0  0  0  0  0  0  0  0  0
    0.7500   -3.8971    0.0000 C   0  0  0  0  0  0  0  0  0  0  0  0
   -0.7500   -3.8971    0.0000 C   0  0  0  0  0  0  0  0  0  0  0  0
   -1.5000   -5.1962    0.0000 C   0  0  0  0  0  0  0  0  0  0  0  0
   -3.0000   -5.1962    0.0000 C   0  0  0  0  0  0  0  0  0  0  0  0
   -0.7500   -6.4952    0.0000 C   0  0  0  0  0  0  0  0  0  0  0  0
    1.5000   -2.5981    0.0000 C   0  0  0  0  0  0  0  0  0  0  0  0
    0.7500   -1.2990    0.0000 O   0  0  0  0  0  0  0  0  0  0  0  0
    3.0000   -2.5981    0.0000 N   0  0  0  0  0  0  0  0  0  0  0  0
    3.7500   -3.8971    0.0000 C   0  0  0  0  0  0  0  0  0  0  0  0
    3.7500   -1.2990    0.0000 C   0  0  0  0  0  0  0  0  0  0  0  0
    3.0000    0.0000    0.0000 C   0  0  0  0  0  0  0  0  0  0  0  0
    3.7500    1.2990    0.0000 C   0  0  0  0  0  0  0  0  0  0  0  0
    3.0000    2.5981    0.0000 C   0  0  0  0  0  0  0  0  0  0  0  0
    3.7500    3.8971    0.0000 C   0  0  0  0  0  0  0  0  0  0  0  0
    5.2500    3.8971    0.0000 C   0  0  0  0  0  0  0  0  0  0  0  0
    6.0000    2.5981    0.0000 C   0  0  0  0  0  0  0  0  0  0  0  0
    5.2500    1.2990    0.0000 C   0  0  0  0  0  0  0  0  0  0  0  0
    5.2500   -1.2990    0.0000 C   0  0  0  0  0  0  0  0  0  0  0  0
    6.0000    0.0000    0.0000 O   0  0  0  0  0  0  0  0  0  0  0  0
    6.0000   -2.5981    0.0000 N   0  0  0  0  0  0  0  0  0  0  0  0
    7.5000   -2.5981    0.0000 C   0  0  0  0  0  0  0  0  0  0  0  0
    8.2500   -3.8971    0.0000 C   0  0  0  0  0  0  0  0  0  0  0  0
    9.7500   -3.8971    0.0000 C   0  0  0  0  0  0  0  0  0  0  0  0
   11.2500   -3.8971    0.0000 C   0  0  0  0  0  0  0  0  0  0  0  0
    8.2500   -1.2990    0.0000 C   0  0  0  0  0  0  0  0  0  0  0  0
    7.5000    0.0000    0.0000 O   0  0  0  0  0  0  0  0  0  0  0  0
    9.7500   -1.2990    0.0000 O   0  0  0  0  0  0  0  0  0  0  0  0
  2  1  1  6
  2  3  1  0
  3  4  1  0
  4  5  1  0
  4  6  1  0
  2  7  1  0
  7  8  2  0
  7  9  1  0
  9 10  1  0
  9 11  1  0
 11 12  1  6
 12 13  1  0
 13 14  2  0
 14 15  1  0
 15 16  2  0
 16 17  1  0
 17 18  2  0
 11 19  1  0
 19 20  2  0
 19 21  1  0
 21 22  1  0
 22 23  1  6
 23 24  1  0
 24 25  3  0
 22 26  1  0
 26 27  2  0
 26 28  1  0
 18 13  1  0
M  END
$$$$

     RDKit          2D

 27 27  0  0  0  0  0  0  0  0999 V2000
    1.5000   -5.1962    0.0000 N   0  0  0  0  0  0  0  0  0  0  0  0
    0.7500   -3.8971    0.0000 C   0  0  0  0  0  0  0  0  0  0  0  0
   -0.7500   -3.8971    0.0000 C   0  0  0  0  0  0  0  0  0  0  0  0
   -1.5000   -5.1962    0.0000 C   0  0  0  0  0  0  0  0  0  0  0  0
   -1.5000   -2.5981    0.0000 C   0  0  0  0  0  0  0  0  0  0  0  0
    1.5000   -2.5981    0.0000 C   0  0  0  0  0  0  0  0  0  0  0  0
    0.7500   -1.2990    0.0000 O   0  0  0  0  0  0  0  0  0  0  0  0
    3.0000   -2.5981    0.0000 N   0  0  0  0  0  0  0  0  0  0  0  0
    3.7500   -3.8971    0.0000 C   0  0  0  0  0  0  0  0  0  0  0  0
    3.7500   -1.2990    0.0000 C   0  0  0  0  0  0  0  0  0  0  0  0
    3.0000    0.0000    0.0000 C   0  0  0  0  0  0  0  0  0  0  0  0
    3.7500    1.2990    0.0000 C   0  0  0  0  0  0  0  0  0  0  0  0
    5.2500    1.2990    0.0000 C   0  0  0  0  0  0  0  0  0  0  0  0
    6.0000    2.5981    0.0000 C   0  0  0  0  0  0  0  0  0  0  0  0
    5.2500    3.8971    0.0000 C   0  0  0  0  0  0  0  0  0  0  0  0
    3.7500    3.8971    0.0000 C   0  0  0  0  0  0  0  0  0  0  0  0
    3.0000    2.5981    0.0000 C   0  0  0  0  0  0  0  0  0  0  0  0
    5.2500   -1.2990    0.0000 C   0  0  0  0  0  0  0  0  0  0  0  0
    6.0000    0.0000    0.0000 O   0  0  0  0  0  0  0  0  0  0  0  0
    6.0000   -2.5981    0.0000 N   0  0  0  0  0  0  0  0  0  0  0  0
    7.5000   -2.5981    0.0000 C   0  0  0  0  0  0  0  0  0  0  0  0
    8.2500   -3.8971    0.0000 C   0  0  0  0  0  0  0  0  0  0  0  0
    9.7500   -3.8971    0.0000 C   0  0  0  0  0  0  0  0  0  0  0  0
   11.2500   -3.8971    0.0000 C   0  0  0  0  0  0  0  0  0  0  0  0
    8.2500   -1.2990    0.0000 C   0  0  0  0  0  0  0  0  0  0  0  0
    7.5000    0.0000    0.0000 O   0  0  0  0  0  0  0  0  0  0  0  0
    9.7500   -1.2990    0.0000 O   0  0  0  0  0  0  0  0  0  0  0  0
  2  1  1  1
  2  3  1  0
  3  4  1  0
  3  5  1  0
  2  6  1  0
  6  7  2  0
  6  8  1  0
  8  9  1  0
  8 10  1  0
 10 11  1  6
 11 12  1  0
 12 13  2  0
 13 14  1  0
 14 15  2  0
 15 16  1  0
 16 17  2  0
 10 18  1  0
 18 19  2  0
 18 20  1  0
 20 21  1  0
 21 22  1  6
 22 23  1  0
 23 24  3  0
 21 25  1  0
 25 26  2  0
 25 27  1  0
 17 12  1  0
M  END
$$$$

     RDKit          2D

 27 27  0  0  0  0  0  0  0  0999 V2000
    1.5000   -5.1962    0.0000 N   0  0  0  0  0  0  0  0  0  0  0  0
    0.7500   -3.8971    0.0000 C   0  0  0  0  0  0  0  0  0  0  0  0
   -0.7500   -3.8971    0.0000 C   0  0  0  0  0  0  0  0  0  0  0  0
   -1.5000   -5.1962    0.0000 C   0  0  0  0  0  0  0  0  0  0  0  0
   -1.5000   -2.5981    0.0000 C   0  0  0  0  0  0  0  0  0  0  0  0
    1.5000   -2.5981    0.0000 C   0  0  0  0  0  0  0  0  0  0  0  0
    0.7500   -1.2990    0.0000 O   0  0  0  0  0  0  0  0  0  0  0  0
    3.0000   -2.5981    0.0000 N   0  0  0  0  0  0  0  0  0  0  0  0
    3.7500   -3.8971    0.0000 C   0  0  0  0  0  0  0  0  0  0  0  0
    3.7500   -1.2990    0.0000 C   0  0  0  0  0  0  0  0  0  0  0  0
    3.0000    0.0000    0.0000 C   0  0  0  0  0  0  0  0  0  0  0  0
    3.7500    1.2990    0.0000 C   0  0  0  0  0  0  0  0  0  0  0  0
    5.2500    1.2990    0.0000 C   0  0  0  0  0  0  0  0  0  0  0  0
    6.0000    2.5981    0.0000 C   0  0  0  0  0  0  0  0  0  0  0  0
    5.2500    3.8971    0.0000 C   0  0  0  0  0  0  0  0  0  0  0  0
    3.7500    3.8971    0.0000 C   0  0  0  0  0  0  0  0  0  0  0  0
    3.0000    2.5981    0.0000 C   0  0  0  0  0  0  0  0  0  0  0  0
    5.2500   -1.2990    0.0000 C   0  0  0  0  0  0  0  0  0  0  0  0
    6.0000    0.0000    0.0000 O   0  0  0  0  0  0  0  0  0  0  0  0
    6.0000   -2.5981    0.0000 N   0  0  0  0  0  0  0  0  0  0  0  0
    7.5000   -2.5981    0.0000 C   0  0  0  0  0  0  0  0  0  0  0  0
    8.2500   -3.8971    0.0000 C   0  0  0  0  0  0  0  0  0  0  0  0
    9.7500   -3.8971    0.0000 C   0  0  0  0  0  0  0  0  0  0  0  0
   11.2500   -3.8971    0.0000 C   0  0  0  0  0  0  0  0  0  0  0  0
    8.2500   -1.2990    0.0000 C   0  0  0  0  0  0  0  0  0  0  0  0
    7.5000    0.0000    0.0000 O   0  0  0  0  0  0  0  0  0  0  0  0
    9.7500   -1.2990    0.0000 O   0  0  0  0  0  0  0  0  0  0  0  0
  2  1  1  6
  2  3  1  0
  3  4  1  0
  3  5  1  0
  2  6  1  0
  6  7  2  0
  6  8  1  0
  8  9  1  0
  8 10  1  0
 10 11  1  6
 11 12  1  0
 12 13  2  0
 13 14  1  0
 14 15  2  0
 15 16  1  0
 16 17  2  0
 10 18  1  0
 18 19  2  0
 18 20  1  0
 20 21  1  0
 21 22  1  6
 22 23  1  0
 23 24  3  0
 21 25  1  0
 25 26  2  0
 25 27  1  0
 17 12  1  0
M  END
$$$$

     RDKit          2D

 29 29  0  0  0  0  0  0  0  0999 V2000
    1.5000   -5.1962    0.0000 N   0  0  0  0  0  0  0  0  0  0  0  0
    0.7500   -6.4952    0.0000 C   0  0  0  0  0  0  0  0  0  0  0  0
    0.7500   -3.8971    0.0000 C   0  0  0  0  0  0  0  0  0  0  0  0
   -0.7500   -3.8971    0.0000 C   0  0  0  0  0  0  0  0  0  0  0  0
   -1.5000   -5.1962    0.0000 C   0  0  0  0  0  0  0  0  0  0  0  0
   -3.0000   -5.1962    0.0000 C   0  0  0  0  0  0  0  0  0  0  0  0
   -0.7500   -6.4952    0.0000 C   0  0  0  0  0  0  0  0  0  0  0  0
    1.5000   -2.5981    0.0000 C   0  0  0  0  0  0  0  0  0  0  0  0
    0.7500   -1.2990    0.0000 O   0  0  0  0  0  0  0  0  0  0  0  0
    3.0000   -2.5981    0.0000 N   0  0  0  0  0  0  0  0  0  0  0  0
    3.7500   -3.8971    0.0000 C   0  0  0  0  0  0  0  0  0  0  0  0
    3.7500   -1.2990    0.0000 C   0  0  0  0  0  0  0  0  0  0  0  0
    3.0000    0.0000    0.0000 C   0  0  0  0  0  0  0  0  0  0  0  0
    3.7500    1.2990    0.0000 C   0  0  0  0  0  0  0  0  0  0  0  0
    5.2500    1.2990    0.0000 C   0  0  0  0  0  0  0  0  0  0  0  0
    6.0000    2.5981    0.0000 C   0  0  0  0  0  0  0  0  0  0  0  0
    5.2500    3.8971    0.0000 C   0  0  0  0  0  0  0  0  0  0  0  0
    3.7500    3.8971    0.0000 C   0  0  0  0  0  0  0  0  0  0  0  0
    3.0000    2.5981    0.0000 C   0  0  0  0  0  0  0  0  0  0  0  0
    5.2500   -1.2990    0.0000 C   0  0  0  0  0  0  0  0  0  0  0  0
    6.0000    0.0000    0.0000 O   0  0  0  0  0  0  0  0  0  0  0  0
    6.0000   -2.5981    0.0000 N   0  0  0  0  0  0  0  0  0  0  0  0
    7.5000   -2.5981    0.0000 C   0  0  0  0  0  0  0  0  0  0  0  0
    8.2500   -3.8971    0.0000 C   0  0  0  0  0  0  0  0  0  0  0  0
    9.7500   -3.8971    0.0000 C   0  0  0  0  0  0  0  0  0  0  0  0
   11.2500   -3.8971    0.0000 C   0  0  0  0  0  0  0  0  0  0  0  0
    8.2500   -1.2990    0.0000 C   0  0  0  0  0  0  0  0  0  0  0  0
    7.5000    0.0000    0.0000 O   0  0  0  0  0  0  0  0  0  0  0  0
    9.7500   -1.2990    0.0000 O   0  0  0  0  0  0  0  0  0  0  0  0
  1  2  1  0
  1  3  1  0
  3  4  1  1
  4  5  1  0
  5  6  1  0
  5  7  1  0
  3  8  1  0
  8  9  2  0
  8 10  1  0
 10 11  1  0
 10 12  1  0
 12 13  1  6
 13 14  1  0
 14 15  2  0
 15 16  1  0
 16 17  2  0
 17 18  1  0
 18 19  2  0
 12 20  1  0
 20 21  2  0
 20 22  1  0
 22 23  1  0
 23 24  1  6
 24 25  1  0
 25 26  3  0
 23 27  1  0
 27 28  2  0
 27 29  1  0
 19 14  1  0
M  END
$$$$

     RDKit          2D

 29 29  0  0  0  0  0  0  0  0999 V2000
    1.5000   -5.1962    0.0000 N   0  0  0  0  0  0  0  0  0  0  0  0
    0.7500   -6.4952    0.0000 C   0  0  0  0  0  0  0  0  0  0  0  0
    0.7500   -3.8971    0.0000 C   0  0  0  0  0  0  0  0  0  0  0  0
   -0.7500   -3.8971    0.0000 C   0  0  0  0  0  0  0  0  0  0  0  0
   -1.5000   -5.1962    0.0000 C   0  0  0  0  0  0  0  0  0  0  0  0
   -3.0000   -5.1962    0.0000 C   0  0  0  0  0  0  0  0  0  0  0  0
   -0.7500   -6.4952    0.0000 C   0  0  0  0  0  0  0  0  0  0  0  0
    1.5000   -2.5981    0.0000 C   0  0  0  0  0  0  0  0  0  0  0  0
    0.7500   -1.2990    0.0000 O   0  0  0  0  0  0  0  0  0  0  0  0
    3.0000   -2.5981    0.0000 N   0  0  0  0  0  0  0  0  0  0  0  0
    3.7500   -3.8971    0.0000 C   0  0  0  0  0  0  0  0  0  0  0  0
    3.7500   -1.2990    0.0000 C   0  0  0  0  0  0  0  0  0  0  0  0
    3.0000    0.0000    0.0000 C   0  0  0  0  0  0  0  0  0  0  0  0
    3.7500    1.2990    0.0000 C   0  0  0  0  0  0  0  0  0  0  0  0
    5.2500    1.2990    0.0000 C   0  0  0  0  0  0  0  0  0  0  0  0
    6.0000    2.5981    0.0000 C   0  0  0  0  0  0  0  0  0  0  0  0
    5.2500    3.8971    0.0000 C   0  0  0  0  0  0  0  0  0  0  0  0
    3.7500    3.8971    0.0000 C   0  0  0  0  0  0  0  0  0  0  0  0
    3.0000    2.5981    0.0000 C   0  0  0  0  0  0  0  0  0  0  0  0
    5.2500   -1.2990    0.0000 C   0  0  0  0  0  0  0  0  0  0  0  0
    6.0000    0.0000    0.0000 O   0  0  0  0  0  0  0  0  0  0  0  0
    6.0000   -2.5981    0.0000 N   0  0  0  0  0  0  0  0  0  0  0  0
    7.5000   -2.5981    0.0000 C   0  0  0  0  0  0  0  0  0  0  0  0
    8.2500   -3.8971    0.0000 C   0  0  0  0  0  0  0  0  0  0  0  0
    9.7500   -3.8971    0.0000 C   0  0  0  0  0  0  0  0  0  0  0  0
   11.2500   -3.8971    0.0000 C   0  0  0  0  0  0  0  0  0  0  0  0
    8.2500   -1.2990    0.0000 C   0  0  0  0  0  0  0  0  0  0  0  0
    7.5000    0.0000    0.0000 O   0  0  0  0  0  0  0  0  0  0  0  0
    9.7500   -1.2990    0.0000 O   0  0  0  0  0  0  0  0  0  0  0  0
  1  2  1  0
  1  3  1  0
  3  4  1  6
  4  5  1  0
  5  6  1  0
  5  7  1  0
  3  8  1  0
  8  9  2  0
  8 10  1  0
 10 11  1  0
 10 12  1  0
 12 13  1  6
 13 14  1  0
 14 15  2  0
 15 16  1  0
 16 17  2  0
 17 18  1  0
 18 19  2  0
 12 20  1  0
 20 21  2  0
 20 22  1  0
 22 23  1  0
 23 24  1  6
 24 25  1  0
 25 26  3  0
 23 27  1  0
 27 28  2  0
 27 29  1  0
 19 14  1  0
M  END
$$$$

     RDKit          2D

 31 32  0  0  0  0  0  0  0  0999 V2000
   -0.7500   -9.0933    0.0000 N   0  0  0  0  0  0  0  0  0  0  0  0
    0.7500   -9.0933    0.0000 C   0  0  0  0  0  0  0  0  0  0  0  0
    1.5000  -10.3923    0.0000 C   0  0  0  0  0  0  0  0  0  0  0  0
    0.7500  -11.6913    0.0000 C   0  0  0  0  0  0  0  0  0  0  0  0
    1.5000  -12.9904    0.0000 C   0  0  0  0  0  0  0  0  0  0  0  0
    0.7500  -14.2894    0.0000 C   0  0  0  0  0  0  0  0  0  0  0  0
   -0.7500  -14.2894    0.0000 C   0  0  0  0  0  0  0  0  0  0  0  0
   -1.5000  -12.9904    0.0000 C   0  0  0  0  0  0  0  0  0  0  0  0
   -0.7500  -11.6913    0.0000 C   0  0  0  0  0  0  0  0  0  0  0  0
    1.5000   -7.7942    0.0000 C   0  0  0  0  0  0  0  0  0  0  0  0
    3.0000   -7.7942    0.0000 O   0  0  0  0  0  0  0  0  0  0  0  0
    0.7500   -6.4952    0.0000 N   0  0  0  0  0  0  0  0  0  0  0  0
    1.5000   -5.1962    0.0000 C   0  0  0  0  0  0  0  0  0  0  0  0
   -0.7500   -6.4952    0.0000 C   0  0  0  0  0  0  0  0  0  0  0  0
   -1.5000   -7.7942    0.0000 C   0  0  0  0  0  0  0  0  0  0  0  0
   -3.0000   -7.7942    0.0000 C   0  0  0  0  0  0  0  0  0  0  0  0
   -3.7500   -6.4952    0.0000 C   0  0  0  0  0  0  0  0  0  0  0  0
   -5.2500   -6.4952    0.0000 C   0  0  0  0  0  0  0  0  0  0  0  0
   -6.0000   -7.7942    0.0000 C   0  0  0  0  0  0  0  0  0  0  0  0
   -5.2500   -9.0933    0.0000 C   0  0  0  0  0  0  0  0  0  0  0  0
   -3.7500   -9.0933    0.0000 C   0  0  0  0  0  0  0  0  0  0  0  0
   -1.5000   -5.1962    0.0000 C   0  0  0  0  0  0  0  0  0  0  0  0
   -0.7500   -3.8971    0.0000 O   0  0  0  0  0  0  0  0  0  0  0  0
   -3.0000   -5.1962    0.0000 N   0  0  0  0  0  0  0  0  0  0  0  0
   -3.7500   -3.8971    0.0000 C   0  0  0  0  0  0  0  0  0  0  0  0
   -5.2500   -3.8971    0.0000 C   0  0  0  0  0  0  0  0  0  0  0  0
   -6.0000   -2.5981    0.0000 C   0  0  0  0  0  0  0  0  0  0  0  0
   -6.7500   -1.2990    0.0000 C   0  0  0  0  0  0  0  0  0  0  0  0
   -3.0000   -2.5981    0.0000 C   0  0  0  0  0  0  0  0  0  0  0  0
   -1.5000   -2.5981    0.0000 O   0  0  0  0  0  0  0  0  0  0  0  0
   -3.7500   -1.2990    0.0000 O   0  0  0  0  0  0  0  0  0  0  0  0
  2  1  1  6
  2  3  1  0
  3  4  1  0
  4  5  2  0
  5  6  1  0
  6  7  2  0
  7  8  1  0
  8  9  2  0
  2 10  1  0
 10 11  2  0
 10 12  1  0
 12 13  1  0
 12 14  1  0
 14 15  1  6
 15 16  1  0
 16 17  2  0
 17 18  1  0
 18 19  2  0
 19 20  1  0
 20 21  2  0
 14 22  1  0
 22 23  2  0
 22 24  1  0
 24 25  1  0
 25 26  1  1
 26 27  1  0
 27 28  3  0
 25 29  1  0
 29 30  2  0
 29 31  1  0
  9  4  1  0
 21 16  1  0
M  END
$$$$

     RDKit          2D

 31 32  0  0  0  0  0  0  0  0999 V2000
   -0.7500   -9.0933    0.0000 N   0  0  0  0  0  0  0  0  0  0  0  0
    0.7500   -9.0933    0.0000 C   0  0  0  0  0  0  0  0  0  0  0  0
    1.5000  -10.3923    0.0000 C   0  0  0  0  0  0  0  0  0  0  0  0
    0.7500  -11.6913    0.0000 C   0  0  0  0  0  0  0  0  0  0  0  0
    1.5000  -12.9904    0.0000 C   0  0  0  0  0  0  0  0  0  0  0  0
    0.7500  -14.2894    0.0000 C   0  0  0  0  0  0  0  0  0  0  0  0
   -0.7500  -14.2894    0.0000 C   0  0  0  0  0  0  0  0  0  0  0  0
   -1.5000  -12.9904    0.0000 C   0  0  0  0  0  0  0  0  0  0  0  0
   -0.7500  -11.6913    0.0000 C   0  0  0  0  0  0  0  0  0  0  0  0
    1.5000   -7.7942    0.0000 C   0  0  0  0  0  0  0  0  0  0  0  0
    3.0000   -7.7942    0.0000 O   0  0  0  0  0  0  0  0  0  0  0  0
    0.7500   -6.4952    0.0000 N   0  0  0  0  0  0  0  0  0  0  0  0
    1.5000   -5.1962    0.0000 C   0  0  0  0  0  0  0  0  0  0  0  0
   -0.7500   -6.4952    0.0000 C   0  0  0  0  0  0  0  0  0  0  0  0
   -1.5000   -7.7942    0.0000 C   0  0  0  0  0  0  0  0  0  0  0  0
   -3.0000   -7.7942    0.0000 C   0  0  0  0  0  0  0  0  0  0  0  0
   -3.7500   -6.4952    0.0000 C   0  0  0  0  0  0  0  0  0  0  0  0
   -5.2500   -6.4952    0.0000 C   0  0  0  0  0  0  0  0  0  0  0  0
   -6.0000   -7.7942    0.0000 C   0  0  0  0  0  0  0  0  0  0  0  0
   -5.2500   -9.0933    0.0000 C   0  0  0  0  0  0  0  0  0  0  0  0
   -3.7500   -9.0933    0.0000 C   0  0  0  0  0  0  0  0  0  0  0  0
   -1.5000   -5.1962    0.0000 C   0  0  0  0  0  0  0  0  0  0  0  0
   -0.7500   -3.8971    0.0000 O   0  0  0  0  0  0  0  0  0  0  0  0
   -3.0000   -5.1962    0.0000 N   0  0  0  0  0  0  0  0  0  0  0  0
   -3.7500   -3.8971    0.0000 C   0  0  0  0  0  0  0  0  0  0  0  0
   -5.2500   -3.8971    0.0000 C   0  0  0  0  0  0  0  0  0  0  0  0
   -6.0000   -2.5981    0.0000 C   0  0  0  0  0  0  0  0  0  0  0  0
   -6.7500   -1.2990    0.0000 C   0  0  0  0  0  0  0  0  0  0  0  0
   -3.0000   -2.5981    0.0000 C   0  0  0  0  0  0  0  0  0  0  0  0
   -1.5000   -2.5981    0.0000 O   0  0  0  0  0  0  0  0  0  0  0  0
   -3.7500   -1.2990    0.0000 O   0  0  0  0  0  0  0  0  0  0  0  0
  2  1  1  1
  2  3  1  0
  3  4  1  0
  4  5  2  0
  5  6  1  0
  6  7  2  0
  7  8  1  0
  8  9  2  0
  2 10  1  0
 10 11  2  0
 10 12  1  0
 12 13  1  0
 12 14  1  0
 14 15  1  6
 15 16  1  0
 16 17  2  0
 17 18  1  0
 18 19  2  0
 19 20  1  0
 20 21  2  0
 14 22  1  0
 22 23  2  0
 22 24  1  0
 24 25  1  0
 25 26  1  1
 26 27  1  0
 27 28  3  0
 25 29  1  0
 29 30  2  0
 29 31  1  0
  9  4  1  0
 21 16  1  0
M  END
$$$$

     RDKit          2D

 32 33  0  0  0  0  0  0  0  0999 V2000
    3.7500   -6.4952    0.0000 N   0  0  0  0  0  0  0  0  0  0  0  0
    3.0000   -5.1962    0.0000 C   0  0  0  0  0  0  0  0  0  0  0  0
    3.0000   -7.7942    0.0000 C   0  0  0  0  0  0  0  0  0  0  0  0
    3.7500   -9.0933    0.0000 C   0  0  0  0  0  0  0  0  0  0  0  0
    5.2500   -9.0933    0.0000 C   0  0  0  0  0  0  0  0  0  0  0  0
    6.0000  -10.3923    0.0000 C   0  0  0  0  0  0  0  0  0  0  0  0
    7.5000  -10.3923    0.0000 C   0  0  0  0  0  0  0  0  0  0  0  0
    8.2500   -9.0933    0.0000 C   0  0  0  0  0  0  0  0  0  0  0  0
    7.5000   -7.7942    0.0000 C   0  0  0  0  0  0  0  0  0  0  0  0
    6.0000   -7.7942    0.0000 C   0  0  0  0  0  0  0  0  0  0  0  0
    1.5000   -7.7942    0.0000 C   0  0  0  0  0  0  0  0  0  0  0  0
    0.7500   -9.0933    0.0000 O   0  0  0  0  0  0  0  0  0  0  0  0
    0.7500   -6.4952    0.0000 N   0  0  0  0  0  0  0  0  0  0  0  0
    1.5000   -5.1962    0.0000 C   0  0  0  0  0  0  0  0  0  0  0  0
   -0.7500   -6.4952    0.0000 C   0  0  0  0  0  0  0  0  0  0  0  0
   -1.5000   -7.7942    0.0000 C   0  0  0  0  0  0  0  0  0  0  0  0
   -3.0000   -7.7942    0.0000 C   0  0  0  0  0  0  0  0  0  0  0  0
   -3.7500   -6.4952    0.0000 C   0  0  0  0  0  0  0  0  0  0  0  0
   -5.2500   -6.4952    0.0000 C   0  0  0  0  0  0  0  0  0  0  0  0
   -6.0000   -7.7942    0.0000 C   0  0  0  0  0  0  0  0  0  0  0  0
   -5.2500   -9.0933    0.0000 C   0  0  0  0  0  0  0  0  0  0  0  0
   -3.7500   -9.0933    0.0000 C   0  0  0  0  0  0  0  0  0  0  0  0
   -1.5000   -5.1962    0.0000 C   0  0  0  0  0  0  0  0  0  0  0  0
   -0.7500   -3.8971    0.0000 O   0  0  0  0  0  0  0  0  0  0  0  0
   -3.0000   -5.1962    0.0000 N   0  0  0  0  0  0  0  0  0  0  0  0
   -3.7500   -3.8971    0.0000 C   0  0  0  0  0  0  0  0  0  0  0  0
   -5.2500   -3.8971    0.0000 C   0  0  0  0  0  0  0  0  0  0  0  0
   -6.0000   -2.5981    0.0000 C   0  0  0  0  0  0  0  0  0  0  0  0
   -6.7500   -1.2990    0.0000 C   0  0  0  0  0  0  0  0  0  0  0  0
   -3.0000   -2.5981    0.0000 C   0  0  0  0  0  0  0  0  0  0  0  0
   -1.5000   -2.5981    0.0000 O   0  0  0  0  0  0  0  0  0  0  0  0
   -3.7500   -1.2990    0.0000 O   0  0  0  0  0  0  0  0  0  0  0  0
  1  2  1  0
  1  3  1  0
  3  4  1  1
  4  5  1  0
  5  6  2  0
  6  7  1  0
  7  8  2  0
  8  9  1  0
  9 10  2  0
  3 11  1  0
 11 12  2  0
 11 13  1  0
 13 14  1  0
 13 15  1  0
 15 16  1  6
 16 17  1  0
 17 18  2  0
 18 19  1  0
 19 20  2  0
 20 21  1  0
 21 22  2  0
 15 23  1  0
 23 24  2  0
 23 25  1  0
 25 26  1  0
 26 27  1  1
 27 28  1  0
 28 29  3  0
 26 30  1  0
 30 31  2  0
 30 32  1  0
 10  5  1  0
 22 17  1  0
M  END
$$$$

     RDKit          2D

 32 33  0  0  0  0  0  0  0  0999 V2000
    3.7500   -6.4952    0.0000 N   0  0  0  0  0  0  0  0  0  0  0  0
    3.0000   -5.1962    0.0000 C   0  0  0  0  0  0  0  0  0  0  0  0
    3.0000   -7.7942    0.0000 C   0  0  0  0  0  0  0  0  0  0  0  0
    3.7500   -9.0933    0.0000 C   0  0  0  0  0  0  0  0  0  0  0  0
    5.2500   -9.0933    0.0000 C   0  0  0  0  0  0  0  0  0  0  0  0
    6.0000  -10.3923    0.0000 C   0  0  0  0  0  0  0  0  0  0  0  0
    7.5000  -10.3923    0.0000 C   0  0  0  0  0  0  0  0  0  0  0  0
    8.2500   -9.0933    0.0000 C   0  0  0  0  0  0  0  0  0  0  0  0
    7.5000   -7.7942    0.0000 C   0  0  0  0  0  0  0  0  0  0  0  0
    6.0000   -7.7942    0.0000 C   0  0  0  0  0  0  0  0  0  0  0  0
    1.5000   -7.7942    0.0000 C   0  0  0  0  0  0  0  0  0  0  0  0
    0.7500   -9.0933    0.0000 O   0  0  0  0  0  0  0  0  0  0  0  0
    0.7500   -6.4952    0.0000 N   0  0  0  0  0  0  0  0  0  0  0  0
    1.5000   -5.1962    0.0000 C   0  0  0  0  0  0  0  0  0  0  0  0
   -0.7500   -6.4952    0.0000 C   0  0  0  0  0  0  0  0  0  0  0  0
   -1.5000   -7.7942    0.0000 C   0  0  0  0  0  0  0  0  0  0  0  0
   -3.0000   -7.7942    0.0000 C   0  0  0  0  0  0  0  0  0  0  0  0
   -3.7500   -6.4952    0.0000 C   0  0  0  0  0  0  0  0  0  0  0  0
   -5.2500   -6.4952    0.0000 C   0  0  0  0  0  0  0  0  0  0  0  0
   -6.0000   -7.7942    0.0000 C   0  0  0  0  0  0  0  0  0  0  0  0
   -5.2500   -9.0933    0.0000 C   0  0  0  0  0  0  0  0  0  0  0  0
   -3.7500   -9.0933    0.0000 C   0  0  0  0  0  0  0  0  0  0  0  0
   -1.5000   -5.1962    0.0000 C   0  0  0  0  0  0  0  0  0  0  0  0
   -0.7500   -3.8971    0.0000 O   0  0  0  0  0  0  0  0  0  0  0  0
   -3.0000   -5.1962    0.0000 N   0  0  0  0  0  0  0  0  0  0  0  0
   -3.7500   -3.8971    0.0000 C   0  0  0  0  0  0  0  0  0  0  0  0
   -5.2500   -3.8971    0.0000 C   0  0  0  0  0  0  0  0  0  0  0  0
   -6.0000   -2.5981    0.0000 C   0  0  0  0  0  0  0  0  0  0  0  0
   -6.7500   -1.2990    0.0000 C   0  0  0  0  0  0  0  0  0  0  0  0
   -3.0000   -2.5981    0.0000 C   0  0  0  0  0  0  0  0  0  0  0  0
   -1.5000   -2.5981    0.0000 O   0  0  0  0  0  0  0  0  0  0  0  0
   -3.7500   -1.2990    0.0000 O   0  0  0  0  0  0  0  0  0  0  0  0
  1  2  1  0
  1  3  1  0
  3  4  1  6
  4  5  1  0
  5  6  2  0
  6  7  1  0
  7  8  2  0
  8  9  1  0
  9 10  2  0
  3 11  1  0
 11 12  2  0
 11 13  1  0
 13 14  1  0
 13 15  1  0
 15 16  1  6
 16 17  1  0
 17 18  2  0
 18 19  1  0
 19 20  2  0
 20 21  1  0
 21 22  2  0
 15 23  1  0
 23 24  2  0
 23 25  1  0
 25 26  1  0
 26 27  1  1
 27 28  1  0
 28 29  3  0
 26 30  1  0
 30 31  2  0
 30 32  1  0
 10  5  1  0
 22 17  1  0
M  END
$$$$

     RDKit          2D

 27 27  0  0  0  0  0  0  0  0999 V2000
    1.5000   -5.1962    0.0000 N   0  0  0  0  0  0  0  0  0  0  0  0
    0.7500   -3.8971    0.0000 C   0  0  0  0  0  0  0  0  0  0  0  0
   -0.7500   -3.8971    0.0000 C   0  0  0  0  0  0  0  0  0  0  0  0
   -1.5000   -2.5981    0.0000 O   0  0  0  0  0  0  0  0  0  0  0  0
   -1.5000   -5.1962    0.0000 C   0  0  0  0  0  0  0  0  0  0  0  0
    1.5000   -2.5981    0.0000 C   0  0  0  0  0  0  0  0  0  0  0  0
    0.7500   -1.2990    0.0000 O   0  0  0  0  0  0  0  0  0  0  0  0
    3.0000   -2.5981    0.0000 N   0  0  0  0  0  0  0  0  0  0  0  0
    3.7500   -3.8971    0.0000 C   0  0  0  0  0  0  0  0  0  0  0  0
    3.7500   -1.2990    0.0000 C   0  0  0  0  0  0  0  0  0  0  0  0
    3.0000    0.0000    0.0000 C   0  0  0  0  0  0  0  0  0  0  0  0
    3.7500    1.2990    0.0000 C   0  0  0  0  0  0  0  0  0  0  0  0
    5.2500    1.2990    0.0000 C   0  0  0  0  0  0  0  0  0  0  0  0
    6.0000    2.5981    0.0000 C   0  0  0  0  0  0  0  0  0  0  0  0
    5.2500    3.8971    0.0000 C   0  0  0  0  0  0  0  0  0  0  0  0
    3.7500    3.8971    0.0000 C   0  0  0  0  0  0  0  0  0  0  0  0
    3.0000    2.5981    0.0000 C   0  0  0  0  0  0  0  0  0  0  0  0
    5.2500   -1.2990    0.0000 C   0  0  0  0  0  0  0  0  0  0  0  0
    6.0000    0.0000    0.0000 O   0  0  0  0  0  0  0  0  0  0  0  0
    6.0000   -2.5981    0.0000 N   0  0  0  0  0  0  0  0  0  0  0  0
    7.5000   -2.5981    0.0000 C   0  0  0  0  0  0  0  0  0  0  0  0
    8.2500   -3.8971    0.0000 C   0  0  0  0  0  0  0  0  0  0  0  0
    9.7500   -3.8971    0.0000 C   0  0  0  0  0  0  0  0  0  0  0  0
   11.2500   -3.8971    0.0000 C   0  0  0  0  0  0  0  0  0  0  0  0
    8.2500   -1.2990    0.0000 C   0  0  0  0  0  0  0  0  0  0  0  0
    7.5000    0.0000    0.0000 O   0  0  0  0  0  0  0  0  0  0  0  0
    9.7500   -1.2990    0.0000 O   0  0  0  0  0  0  0  0  0  0  0  0
  2  1  1  1
  2  3  1  0
  3  4  1  0
  3  5  1  1
  2  6  1  0
  6  7  2  0
  6  8  1  0
  8  9  1  0
  8 10  1  0
 10 11  1  6
 11 12  1  0
 12 13  2  0
 13 14  1  0
 14 15  2  0
 15 16  1  0
 16 17  2  0
 10 18  1  0
 18 19  2  0
 18 20  1  0
 20 21  1  0
 21 22  1  6
 22 23  1  0
 23 24  3  0
 21 25  1  0
 25 26  2  0
 25 27  1  0
 17 12  1  0
M  END
$$$$

     RDKit          2D

 27 27  0  0  0  0  0  0  0  0999 V2000
    1.5000   -5.1962    0.0000 N   0  0  0  0  0  0  0  0  0  0  0  0
    0.7500   -3.8971    0.0000 C   0  0  0  0  0  0  0  0  0  0  0  0
   -0.7500   -3.8971    0.0000 C   0  0  0  0  0  0  0  0  0  0  0  0
   -1.5000   -2.5981    0.0000 O   0  0  0  0  0  0  0  0  0  0  0  0
   -1.5000   -5.1962    0.0000 C   0  0  0  0  0  0  0  0  0  0  0  0
    1.5000   -2.5981    0.0000 C   0  0  0  0  0  0  0  0  0  0  0  0
    0.7500   -1.2990    0.0000 O   0  0  0  0  0  0  0  0  0  0  0  0
    3.0000   -2.5981    0.0000 N   0  0  0  0  0  0  0  0  0  0  0  0
    3.7500   -3.8971    0.0000 C   0  0  0  0  0  0  0  0  0  0  0  0
    3.7500   -1.2990    0.0000 C   0  0  0  0  0  0  0  0  0  0  0  0
    3.0000    0.0000    0.0000 C   0  0  0  0  0  0  0  0  0  0  0  0
    3.7500    1.2990    0.0000 C   0  0  0  0  0  0  0  0  0  0  0  0
    5.2500    1.2990    0.0000 C   0  0  0  0  0  0  0  0  0  0  0  0
    6.0000    2.5981    0.0000 C   0  0  0  0  0  0  0  0  0  0  0  0
    5.2500    3.8971    0.0000 C   0  0  0  0  0  0  0  0  0  0  0  0
    3.7500    3.8971    0.0000 C   0  0  0  0  0  0  0  0  0  0  0  0
    3.0000    2.5981    0.0000 C   0  0  0  0  0  0  0  0  0  0  0  0
    5.2500   -1.2990    0.0000 C   0  0  0  0  0  0  0  0  0  0  0  0
    6.0000    0.0000    0.0000 O   0  0  0  0  0  0  0  0  0  0  0  0
    6.0000   -2.5981    0.0000 N   0  0  0  0  0  0  0  0  0  0  0  0
    7.5000   -2.5981    0.0000 C   0  0  0  0  0  0  0  0  0  0  0  0
    8.2500   -3.8971    0.0000 C   0  0  0  0  0  0  0  0  0  0  0  0
    9.7500   -3.8971    0.0000 C   0  0  0  0  0  0  0  0  0  0  0  0
   11.2500   -3.8971    0.0000 C   0  0  0  0  0  0  0  0  0  0  0  0
    8.2500   -1.2990    0.0000 C   0  0  0  0  0  0  0  0  0  0  0  0
    7.5000    0.0000    0.0000 O   0  0  0  0  0  0  0  0  0  0  0  0
    9.7500   -1.2990    0.0000 O   0  0  0  0  0  0  0  0  0  0  0  0
  2  1  1  6
  2  3  1  0
  3  4  1  0
  3  5  1  1
  2  6  1  0
  6  7  2  0
  6  8  1  0
  8  9  1  0
  8 10  1  0
 10 11  1  6
 11 12  1  0
 12 13  2  0
 13 14  1  0
 14 15  2  0
 15 16  1  0
 16 17  2  0
 10 18  1  0
 18 19  2  0
 18 20  1  0
 20 21  1  0
 21 22  1  6
 22 23  1  0
 23 24  3  0
 21 25  1  0
 25 26  2  0
 25 27  1  0
 17 12  1  0
M  END
$$$$

     RDKit          2D

 28 28  0  0  0  0  0  0  0  0999 V2000
    1.5000   -5.1962    0.0000 N   0  0  0  0  0  0  0  0  0  0  0  0
    0.7500   -6.4952    0.0000 C   0  0  0  0  0  0  0  0  0  0  0  0
    0.7500   -3.8971    0.0000 C   0  0  0  0  0  0  0  0  0  0  0  0
   -0.7500   -3.8971    0.0000 C   0  0  0  0  0  0  0  0  0  0  0  0
   -1.5000   -2.5981    0.0000 O   0  0  0  0  0  0  0  0  0  0  0  0
   -1.5000   -5.1962    0.0000 C   0  0  0  0  0  0  0  0  0  0  0  0
    1.5000   -2.5981    0.0000 C   0  0  0  0  0  0  0  0  0  0  0  0
    0.7500   -1.2990    0.0000 O   0  0  0  0  0  0  0  0  0  0  0  0
    3.0000   -2.5981    0.0000 N   0  0  0  0  0  0  0  0  0  0  0  0
    3.7500   -3.8971    0.0000 C   0  0  0  0  0  0  0  0  0  0  0  0
    3.7500   -1.2990    0.0000 C   0  0  0  0  0  0  0  0  0  0  0  0
    3.0000    0.0000    0.0000 C   0  0  0  0  0  0  0  0  0  0  0  0
    3.7500    1.2990    0.0000 C   0  0  0  0  0  0  0  0  0  0  0  0
    5.2500    1.2990    0.0000 C   0  0  0  0  0  0  0  0  0  0  0  0
    6.0000    2.5981    0.0000 C   0  0  0  0  0  0  0  0  0  0  0  0
    5.2500    3.8971    0.0000 C   0  0  0  0  0  0  0  0  0  0  0  0
    3.7500    3.8971    0.0000 C   0  0  0  0  0  0  0  0  0  0  0  0
    3.0000    2.5981    0.0000 C   0  0  0  0  0  0  0  0  0  0  0  0
    5.2500   -1.2990    0.0000 C   0  0  0  0  0  0  0  0  0  0  0  0
    6.0000    0.0000    0.0000 O   0  0  0  0  0  0  0  0  0  0  0  0
    6.0000   -2.5981    0.0000 N   0  0  0  0  0  0  0  0  0  0  0  0
    7.5000   -2.5981    0.0000 C   0  0  0  0  0  0  0  0  0  0  0  0
    8.2500   -3.8971    0.0000 C   0  0  0  0  0  0  0  0  0  0  0  0
    9.7500   -3.8971    0.0000 C   0  0  0  0  0  0  0  0  0  0  0  0
   11.2500   -3.8971    0.0000 C   0  0  0  0  0  0  0  0  0  0  0  0
    8.2500   -1.2990    0.0000 C   0  0  0  0  0  0  0  0  0  0  0  0
    7.5000    0.0000    0.0000 O   0  0  0  0  0  0  0  0  0  0  0  0
    9.7500   -1.2990    0.0000 O   0  0  0  0  0  0  0  0  0  0  0  0
  1  2  1  0
  3  1  1  1
  3  4  1  0
  4  5  1  0
  4  6  1  1
  3  7  1  0
  7  8  2  0
  7  9  1  0
  9 10  1  0
  9 11  1  0
 11 12  1  6
 12 13  1  0
 13 14  2  0
 14 15  1  0
 15 16  2  0
 16 17  1  0
 17 18  2  0
 11 19  1  0
 19 20  2  0
 19 21  1  0
 21 22  1  0
 22 23  1  6
 23 24  1  0
 24 25  3  0
 22 26  1  0
 26 27  2  0
 26 28  1  0
 18 13  1  0
M  END
$$$$

     RDKit          2D

 28 28  0  0  0  0  0  0  0  0999 V2000
    1.5000   -5.1962    0.0000 N   0  0  0  0  0  0  0  0  0  0  0  0
    0.7500   -6.4952    0.0000 C   0  0  0  0  0  0  0  0  0  0  0  0
    0.7500   -3.8971    0.0000 C   0  0  0  0  0  0  0  0  0  0  0  0
   -0.7500   -3.8971    0.0000 C   0  0  0  0  0  0  0  0  0  0  0  0
   -1.5000   -2.5981    0.0000 O   0  0  0  0  0  0  0  0  0  0  0  0
   -1.5000   -5.1962    0.0000 C   0  0  0  0  0  0  0  0  0  0  0  0
    1.5000   -2.5981    0.0000 C   0  0  0  0  0  0  0  0  0  0  0  0
    0.7500   -1.2990    0.0000 O   0  0  0  0  0  0  0  0  0  0  0  0
    3.0000   -2.5981    0.0000 N   0  0  0  0  0  0  0  0  0  0  0  0
    3.7500   -3.8971    0.0000 C   0  0  0  0  0  0  0  0  0  0  0  0
    3.7500   -1.2990    0.0000 C   0  0  0  0  0  0  0  0  0  0  0  0
    3.0000    0.0000    0.0000 C   0  0  0  0  0  0  0  0  0  0  0  0
    3.7500    1.2990    0.0000 C   0  0  0  0  0  0  0  0  0  0  0  0
    5.2500    1.2990    0.0000 C   0  0  0  0  0  0  0  0  0  0  0  0
    6.0000    2.5981    0.0000 C   0  0  0  0  0  0  0  0  0  0  0  0
    5.2500    3.8971    0.0000 C   0  0  0  0  0  0  0  0  0  0  0  0
    3.7500    3.8971    0.0000 C   0  0  0  0  0  0  0  0  0  0  0  0
    3.0000    2.5981    0.0000 C   0  0  0  0  0  0  0  0  0  0  0  0
    5.2500   -1.2990    0.0000 C   0  0  0  0  0  0  0  0  0  0  0  0
    6.0000    0.0000    0.0000 O   0  0  0  0  0  0  0  0  0  0  0  0
    6.0000   -2.5981    0.0000 N   0  0  0  0  0  0  0  0  0  0  0  0
    7.5000   -2.5981    0.0000 C   0  0  0  0  0  0  0  0  0  0  0  0
    8.2500   -3.8971    0.0000 C   0  0  0  0  0  0  0  0  0  0  0  0
    9.7500   -3.8971    0.0000 C   0  0  0  0  0  0  0  0  0  0  0  0
   11.2500   -3.8971    0.0000 C   0  0  0  0  0  0  0  0  0  0  0  0
    8.2500   -1.2990    0.0000 C   0  0  0  0  0  0  0  0  0  0  0  0
    7.5000    0.0000    0.0000 O   0  0  0  0  0  0  0  0  0  0  0  0
    9.7500   -1.2990    0.0000 O   0  0  0  0  0  0  0  0  0  0  0  0
  1  2  1  0
  3  1  1  6
  3  4  1  0
  4  5  1  0
  4  6  1  1
  3  7  1  0
  7  8  2  0
  7  9  1  0
  9 10  1  0
  9 11  1  0
 11 12  1  6
 12 13  1  0
 13 14  2  0
 14 15  1  0
 15 16  2  0
 16 17  1  0
 17 18  2  0
 11 19  1  0
 19 20  2  0
 19 21  1  0
 21 22  1  0
 22 23  1  6
 23 24  1  0
 24 25  3  0
 22 26  1  0
 26 27  2  0
 26 28  1  0
 18 13  1  0
M  END
$$$$

     RDKit          2D

 28 28  0  0  0  0  0  0  0  0999 V2000
   -0.7500   -3.8971    0.0000 N   0  0  0  0  0  0  0  0  0  0  0  0
   -1.5000   -5.1962    0.0000 C   0  0  0  0  0  0  0  0  0  0  0  0
   -3.0000   -5.1962    0.0000 C   0  0  0  0  0  0  0  0  0  0  0  0
   -3.7500   -6.4952    0.0000 C   0  0  0  0  0  0  0  0  0  0  0  0
   -3.7500   -3.8971    0.0000 C   0  0  0  0  0  0  0  0  0  0  0  0
    0.7500   -3.8971    0.0000 C   0  0  0  0  0  0  0  0  0  0  0  0
    1.5000   -2.5981    0.0000 C   0  0  0  0  0  0  0  0  0  0  0  0
    0.7500   -1.2990    0.0000 O   0  0  0  0  0  0  0  0  0  0  0  0
    3.0000   -2.5981    0.0000 N   0  0  0  0  0  0  0  0  0  0  0  0
    3.7500   -3.8971    0.0000 C   0  0  0  0  0  0  0  0  0  0  0  0
    3.7500   -1.2990    0.0000 C   0  0  0  0  0  0  0  0  0  0  0  0
    3.0000    0.0000    0.0000 C   0  0  0  0  0  0  0  0  0  0  0  0
    3.7500    1.2990    0.0000 C   0  0  0  0  0  0  0  0  0  0  0  0
    5.2500    1.2990    0.0000 C   0  0  0  0  0  0  0  0  0  0  0  0
    6.0000    2.5981    0.0000 C   0  0  0  0  0  0  0  0  0  0  0  0
    5.2500    3.8971    0.0000 C   0  0  0  0  0  0  0  0  0  0  0  0
    3.7500    3.8971    0.0000 C   0  0  0  0  0  0  0  0  0  0  0  0
    3.0000    2.5981    0.0000 C   0  0  0  0  0  0  0  0  0  0  0  0
    5.2500   -1.2990    0.0000 C   0  0  0  0  0  0  0  0  0  0  0  0
    6.0000    0.0000    0.0000 O   0  0  0  0  0  0  0  0  0  0  0  0
    6.0000   -2.5981    0.0000 N   0  0  0  0  0  0  0  0  0  0  0  0
    7.5000   -2.5981    0.0000 C   0  0  0  0  0  0  0  0  0  0  0  0
    8.2500   -3.8971    0.0000 C   0  0  0  0  0  0  0  0  0  0  0  0
    9.7500   -3.8971    0.0000 C   0  0  0  0  0  0  0  0  0  0  0  0
   11.2500   -3.8971    0.0000 C   0  0  0  0  0  0  0  0  0  0  0  0
    8.2500   -1.2990    0.0000 C   0  0  0  0  0  0  0  0  0  0  0  0
    7.5000    0.0000    0.0000 O   0  0  0  0  0  0  0  0  0  0  0  0
    9.7500   -1.2990    0.0000 O   0  0  0  0  0  0  0  0  0  0  0  0
  1  2  1  0
  2  3  1  0
  3  4  1  0
  3  5  1  0
  1  6  1  0
  6  7  1  0
  7  8  2  0
  7  9  1  0
  9 10  1  0
  9 11  1  0
 11 12  1  6
 12 13  1  0
 13 14  2  0
 14 15  1  0
 15 16  2  0
 16 17  1  0
 17 18  2  0
 11 19  1  0
 19 20  2  0
 19 21  1  0
 21 22  1  0
 22 23  1  6
 23 24  1  0
 24 25  3  0
 22 26  1  0
 26 27  2  0
 26 28  1  0
 18 13  1  0
M  END
$$$$

     RDKit          2D

 31 31  0  0  0  0  0  0  0  0999 V2000
   -0.7500   -3.8971    0.0000 N   0  0  0  0  0  0  0  0  0  0  0  0
   -1.5000   -5.1962    0.0000 C   0  0  0  0  0  0  0  0  0  0  0  0
   -3.0000   -5.1962    0.0000 C   0  0  0  0  0  0  0  0  0  0  0  0
   -3.7500   -6.4952    0.0000 C   0  0  0  0  0  0  0  0  0  0  0  0
   -5.2500   -6.4952    0.0000 O   0  0  0  0  0  0  0  0  0  0  0  0
   -6.0000   -7.7942    0.0000 C   0  0  0  0  0  0  0  0  0  0  0  0
   -7.5000   -7.7942    0.0000 C   0  0  0  0  0  0  0  0  0  0  0  0
   -5.2500   -9.0933    0.0000 C   0  0  0  0  0  0  0  0  0  0  0  0
    0.7500   -3.8971    0.0000 C   0  0  0  0  0  0  0  0  0  0  0  0
    1.5000   -2.5981    0.0000 C   0  0  0  0  0  0  0  0  0  0  0  0
    0.7500   -1.2990    0.0000 O   0  0  0  0  0  0  0  0  0  0  0  0
    3.0000   -2.5981    0.0000 N   0  0  0  0  0  0  0  0  0  0  0  0
    3.7500   -3.8971    0.0000 C   0  0  0  0  0  0  0  0  0  0  0  0
    3.7500   -1.2990    0.0000 C   0  0  0  0  0  0  0  0  0  0  0  0
    3.0000    0.0000    0.0000 C   0  0  0  0  0  0  0  0  0  0  0  0
    3.7500    1.2990    0.0000 C   0  0  0  0  0  0  0  0  0  0  0  0
    5.2500    1.2990    0.0000 C   0  0  0  0  0  0  0  0  0  0  0  0
    6.0000    2.5981    0.0000 C   0  0  0  0  0  0  0  0  0  0  0  0
    5.2500    3.8971    0.0000 C   0  0  0  0  0  0  0  0  0  0  0  0
    3.7500    3.8971    0.0000 C   0  0  0  0  0  0  0  0  0  0  0  0
    3.0000    2.5981    0.0000 C   0  0  0  0  0  0  0  0  0  0  0  0
    5.2500   -1.2990    0.0000 C   0  0  0  0  0  0  0  0  0  0  0  0
    6.0000    0.0000    0.0000 O   0  0  0  0  0  0  0  0  0  0  0  0
    6.0000   -2.5981    0.0000 N   0  0  0  0  0  0  0  0  0  0  0  0
    7.5000   -2.5981    0.0000 C   0  0  0  0  0  0  0  0  0  0  0  0
    8.2500   -3.8971    0.0000 C   0  0  0  0  0  0  0  0  0  0  0  0
    9.7500   -3.8971    0.0000 C   0  0  0  0  0  0  0  0  0  0  0  0
   11.2500   -3.8971    0.0000 C   0  0  0  0  0  0  0  0  0  0  0  0
    8.2500   -1.2990    0.0000 C   0  0  0  0  0  0  0  0  0  0  0  0
    7.5000    0.0000    0.0000 O   0  0  0  0  0  0  0  0  0  0  0  0
    9.7500   -1.2990    0.0000 O   0  0  0  0  0  0  0  0  0  0  0  0
  1  2  1  0
  2  3  1  0
  3  4  1  0
  4  5  1  0
  5  6  1  0
  6  7  1  0
  6  8  1  0
  1  9  1  0
  9 10  1  0
 10 11  2  0
 10 12  1  0
 12 13  1  0
 12 14  1  0
 14 15  1  6
 15 16  1  0
 16 17  2  0
 17 18  1  0
 18 19  2  0
 19 20  1  0
 20 21  2  0
 14 22  1  0
 22 23  2  0
 22 24  1  0
 24 25  1  0
 25 26  1  6
 26 27  1  0
 27 28  3  0
 25 29  1  0
 29 30  2  0
 29 31  1  0
 21 16  1  0
M  END
$$$$

     RDKit          2D

 33 34  0  0  0  0  0  0  0  0999 V2000
    0.7500   -6.4952    0.0000 N   0  0  0  0  0  0  0  0  0  0  0  0
    1.5000   -5.1962    0.0000 C   0  0  0  0  0  0  0  0  0  0  0  0
    0.7500   -3.8971    0.0000 C   0  0  0  0  0  0  0  0  0  0  0  0
    1.5000   -2.5981    0.0000 O   0  0  0  0  0  0  0  0  0  0  0  0
    0.7500   -1.2990    0.0000 C   0  0  0  0  0  0  0  0  0  0  0  0
    1.5000    0.0000    0.0000 C   0  0  0  0  0  0  0  0  0  0  0  0
    0.7500    1.2990    0.0000 C   0  0  0  0  0  0  0  0  0  0  0  0
   -0.7500    1.2990    0.0000 C   0  0  0  0  0  0  0  0  0  0  0  0
   -1.5000    0.0000    0.0000 C   0  0  0  0  0  0  0  0  0  0  0  0
   -0.7500   -1.2990    0.0000 C   0  0  0  0  0  0  0  0  0  0  0  0
    1.5000   -7.7942    0.0000 C   0  0  0  0  0  0  0  0  0  0  0  0
    0.7500   -9.0933    0.0000 C   0  0  0  0  0  0  0  0  0  0  0  0
   -0.7500   -9.0933    0.0000 O   0  0  0  0  0  0  0  0  0  0  0  0
    1.5000  -10.3923    0.0000 N   0  0  0  0  0  0  0  0  0  0  0  0
    0.7500  -11.6913    0.0000 C   0  0  0  0  0  0  0  0  0  0  0  0
    3.0000  -10.3923    0.0000 C   0  0  0  0  0  0  0  0  0  0  0  0
    3.7500  -11.6913    0.0000 C   0  0  0  0  0  0  0  0  0  0  0  0
    5.2500  -11.6913    0.0000 C   0  0  0  0  0  0  0  0  0  0  0  0
    6.0000  -12.9904    0.0000 C   0  0  0  0  0  0  0  0  0  0  0  0
    7.5000  -12.9904    0.0000 C   0  0  0  0  0  0  0  0  0  0  0  0
    8.2500  -11.6913    0.0000 C   0  0  0  0  0  0  0  0  0  0  0  0
    7.5000  -10.3923    0.0000 C   0  0  0  0  0  0  0  0  0  0  0  0
    6.0000  -10.3923    0.0000 C   0  0  0  0  0  0  0  0  0  0  0  0
    3.7500   -9.0933    0.0000 C   0  0  0  0  0  0  0  0  0  0  0  0
    3.0000   -7.7942    0.0000 O   0  0  0  0  0  0  0  0  0  0  0  0
    5.2500   -9.0933    0.0000 N   0  0  0  0  0  0  0  0  0  0  0  0
    6.0000   -7.7942    0.0000 C   0  0  0  0  0  0  0  0  0  0  0  0
    7.5000   -7.7942    0.0000 C   0  0  0  0  0  0  0  0  0  0  0  0
    8.2500   -6.4952    0.0000 C   0  0  0  0  0  0  0  0  0  0  0  0
    9.0000   -5.1962    0.0000 C   0  0  0  0  0  0  0  0  0  0  0  0
    5.2500   -6.4952    0.0000 C   0  0  0  0  0  0  0  0  0  0  0  0
    3.7500   -6.4952    0.0000 O   0  0  0  0  0  0  0  0  0  0  0  0
    6.0000   -5.1962    0.0000 O   0  0  0  0  0  0  0  0  0  0  0  0
  1  2  1  0
  2  3  1  0
  3  4  1  0
  4  5  1  0
  5  6  2  0
  6  7  1  0
  7  8  2  0
  8  9  1  0
  9 10  2  0
  1 11  1  0
 11 12  1  0
 12 13  2  0
 12 14  1  0
 14 15  1  0
 14 16  1  0
 16 17  1  1
 17 18  1  0
 18 19  2  0
 19 20  1  0
 20 21  2  0
 21 22  1  0
 22 23  2  0
 16 24  1  0
 24 25  2  0
 24 26  1  0
 26 27  1  0
 27 28  1  6
 28 29  1  0
 29 30  3  0
 27 31  1  0
 31 32  2  0
 31 33  1  0
 23 18  1  0
 10  5  1  0
M  END
$$$$

     RDKit          2D

 36 37  0  0  0  0  0  0  0  0999 V2000
    1.5000   -5.1962    0.0000 N   0  0  0  0  0  0  0  0  0  0  0  0
    0.7500   -3.8971    0.0000 C   0  0  0  0  0  0  0  0  0  0  0  0
    1.5000   -2.5981    0.0000 C   0  0  0  0  0  0  0  0  0  0  0  0
    0.7500   -1.2990    0.0000 C   0  0  0  0  0  0  0  0  0  0  0  0
    1.5000    0.0000    0.0000 C   0  0  0  0  0  0  0  0  0  0  0  0
    0.7500    1.2990    0.0000 C   0  0  0  0  0  0  0  0  0  0  0  0
   -0.7500    1.2990    0.0000 C   0  0  0  0  0  0  0  0  0  0  0  0
   -1.5000    0.0000    0.0000 C   0  0  0  0  0  0  0  0  0  0  0  0
   -3.0000    0.0000    0.0000 O   0  0  0  0  0  0  0  0  0  0  0  0
   -3.7500   -1.2990    0.0000 C   0  0  0  0  0  0  0  0  0  0  0  0
   -0.7500   -1.2990    0.0000 C   0  0  0  0  0  0  0  0  0  0  0  0
   -1.5000    2.5981    0.0000 O   0  0  0  0  0  0  0  0  0  0  0  0
   -0.7500    3.8971    0.0000 C   0  0  0  0  0  0  0  0  0  0  0  0
    0.7500   -6.4952    0.0000 C   0  0  0  0  0  0  0  0  0  0  0  0
    1.5000   -7.7942    0.0000 C   0  0  0  0  0  0  0  0  0  0  0  0
    3.0000   -7.7942    0.0000 O   0  0  0  0  0  0  0  0  0  0  0  0
    0.7500   -9.0933    0.0000 N   0  0  0  0  0  0  0  0  0  0  0  0
    1.5000  -10.3923    0.0000 C   0  0  0  0  0  0  0  0  0  0  0  0
   -0.7500   -9.0933    0.0000 C   0  0  0  0  0  0  0  0  0  0  0  0
   -1.5000  -10.3923    0.0000 C   0  0  0  0  0  0  0  0  0  0  0  0
   -3.0000  -10.3923    0.0000 C   0  0  0  0  0  0  0  0  0  0  0  0
   -3.7500   -9.0933    0.0000 C   0  0  0  0  0  0  0  0  0  0  0  0
   -5.2500   -9.0933    0.0000 C   0  0  0  0  0  0  0  0  0  0  0  0
   -6.0000  -10.3923    0.0000 C   0  0  0  0  0  0  0  0  0  0  0  0
   -5.2500  -11.6913    0.0000 C   0  0  0  0  0  0  0  0  0  0  0  0
   -3.7500  -11.6913    0.0000 C   0  0  0  0  0  0  0  0  0  0  0  0
   -1.5000   -7.7942    0.0000 C   0  0  0  0  0  0  0  0  0  0  0  0
   -0.7500   -6.4952    0.0000 O   0  0  0  0  0  0  0  0  0  0  0  0
   -3.0000   -7.7942    0.0000 N   0  0  0  0  0  0  0  0  0  0  0  0
   -3.7500   -6.4952    0.0000 C   0  0  0  0  0  0  0  0  0  0  0  0
   -5.2500   -6.4952    0.0000 C   0  0  0  0  0  0  0  0  0  0  0  0
   -6.0000   -5.1962    0.0000 C   0  0  0  0  0  0  0  0  0  0  0  0
   -6.7500   -3.8971    0.0000 C   0  0  0  0  0  0  0  0  0  0  0  0
   -3.0000   -5.1962    0.0000 C   0  0  0  0  0  0  0  0  0  0  0  0
   -1.5000   -5.1962    0.0000 O   0  0  0  0  0  0  0  0  0  0  0  0
   -3.7500   -3.8971    0.0000 O   0  0  0  0  0  0  0  0  0  0  0  0
  1  2  1  0
  2  3  1  0
  3  4  1  0
  4  5  2  0
  5  6  1  0
  6  7  2  0
  7  8  1  0
  8  9  1  0
  9 10  1  0
  8 11  2  0
  7 12  1  0
 12 13  1  0
  1 14  1  0
 14 15  1  0
 15 16  2  0
 15 17  1  0
 17 18  1  0
 17 19  1  0
 19 20  1  6
 20 21  1  0
 21 22  2  0
 22 23  1  0
 23 24  2  0
 24 25  1  0
 25 26  2  0
 19 27  1  0
 27 28  2  0
 27 29  1  0
 29 30  1  0
 30 31  1  1
 31 32  1  0
 32 33  3  0
 30 34  1  0
 34 35  2  0
 34 36  1  0
 26 21  1  0
 11  4  1  0
M  END
$$$$

     RDKit          2D

 43 44  0  0  0  0  0  0  0  0999 V2000
   -8.8235    0.2211    0.0000 N   0  0  0  0  0  0  0  0  0  0  0  0
   -8.3600    1.6477    0.0000 C   0  0  0  0  0  0  0  0  0  0  0  0
   -9.3637    2.7625    0.0000 C   0  0  0  0  0  0  0  0  0  0  0  0
  -10.8309    2.4506    0.0000 C   0  0  0  0  0  0  0  0  0  0  0  0
  -11.8346    3.5653    0.0000 C   0  0  0  0  0  0  0  0  0  0  0  0
  -11.2944    1.0240    0.0000 C   0  0  0  0  0  0  0  0  0  0  0  0
   -6.8928    1.9596    0.0000 C   0  0  0  0  0  0  0  0  0  0  0  0
   -6.4292    3.3862    0.0000 O   0  0  0  0  0  0  0  0  0  0  0  0
   -5.8891    0.8449    0.0000 N   0  0  0  0  0  0  0  0  0  0  0  0
   -4.4218    1.1568    0.0000 C   0  0  0  0  0  0  0  0  0  0  0  0
   -3.9583    2.5833    0.0000 C   0  0  0  0  0  0  0  0  0  0  0  0
   -2.4911    2.8952    0.0000 C   0  0  0  0  0  0  0  0  0  0  0  0
   -2.0276    4.3218    0.0000 C   0  0  0  0  0  0  0  0  0  0  0  0
   -1.4874    1.7805    0.0000 C   0  0  0  0  0  0  0  0  0  0  0  0
   -3.4182    0.0420    0.0000 C   0  0  0  0  0  0  0  0  0  0  0  0
   -1.9509    0.3539    0.0000 O   0  0  0  0  0  0  0  0  0  0  0  0
   -3.8817   -1.3846    0.0000 N   0  0  0  0  0  0  0  0  0  0  0  0
   -5.3083   -1.8481    0.0000 C   0  0  0  0  0  0  0  0  0  0  0  0
   -5.3083   -3.3481    0.0000 C   0  0  0  0  0  0  0  0  0  0  0  0
   -3.8817   -3.8116    0.0000 C   0  0  0  0  0  0  0  0  0  0  0  0
   -3.0000   -2.5981    0.0000 C   0  0  0  0  0  0  0  0  0  0  0  0
   -1.5000   -2.5981    0.0000 C   0  0  0  0  0  0  0  0  0  0  0  0
   -0.7500   -1.2990    0.0000 O   0  0  0  0  0  0  0  0  0  0  0  0
   -0.7500   -3.8971    0.0000 N   0  0  0  0  0  0  0  0  0  0  0  0
   -1.5000   -5.1962    0.0000 C   0  0  0  0  0  0  0  0  0  0  0  0
    0.7500   -3.8971    0.0000 C   0  0  0  0  0  0  0  0  0  0  0  0
    1.5000   -2.5981    0.0000 C   0  0  0  0  0  0  0  0  0  0  0  0
    3.0000   -2.5981    0.0000 C   0  0  0  0  0  0  0  0  0  0  0  0
    3.7500   -1.2990    0.0000 C   0  0  0  0  0  0  0  0  0  0  0  0
    5.2500   -1.2990    0.0000 C   0  0  0  0  0  0  0  0  0  0  0  0
    6.0000   -2.5981    0.0000 C   0  0  0  0  0  0  0  0  0  0  0  0
    5.2500   -3.8971    0.0000 C   0  0  0  0  0  0  0  0  0  0  0  0
    3.7500   -3.8971    0.0000 C   0  0  0  0  0  0  0  0  0  0  0  0
    1.5000   -5.1962    0.0000 C   0  0  0  0  0  0  0  0  0  0  0  0
    3.0000   -5.1962    0.0000 O   0  0  0  0  0  0  0  0  0  0  0  0
    0.7500   -6.4952    0.0000 N   0  0  0  0  0  0  0  0  0  0  0  0
    1.5000   -7.7942    0.0000 C   0  0  0  0  0  0  0  0  0  0  0  0
    0.7500   -9.0933    0.0000 C   0  0  0  0  0  0  0  0  0  0  0  0
    1.5000  -10.3923    0.0000 C   0  0  0  0  0  0  0  0  0  0  0  0
    2.2500  -11.6913    0.0000 C   0  0  0  0  0  0  0  0  0  0  0  0
    3.0000   -7.7942    0.0000 C   0  0  0  0  0  0  0  0  0  0  0  0
    3.7500   -6.4952    0.0000 O   0  0  0  0  0  0  0  0  0  0  0  0
    3.7500   -9.0933    0.0000 O   0  0  0  0  0  0  0  0  0  0  0  0
  2  1  1  1
  2  3  1  0
  3  4  1  0
  4  5  1  0
  4  6  1  0
  2  7  1  0
  7  8  2  0
  7  9  1  0
  9 10  1  0
 10 11  1  1
 11 12  1  0
 12 13  1  0
 12 14  1  0
 10 15  1  0
 15 16  2  0
 15 17  1  0
 17 18  1  0
 18 19  1  0
 19 20  1  0
 20 21  1  0
 21 22  1  6
 22 23  2  0
 22 24  1  0
 24 25  1  0
 24 26  1  0
 26 27  1  6
 27 28  1  0
 28 29  2  0
 29 30  1  0
 30 31  2  0
 31 32  1  0
 32 33  2  0
 26 34  1  0
 34 35  2  0
 34 36  1  0
 36 37  1  0
 37 38  1  6
 38 39  1  0
 39 40  3  0
 37 41  1  0
 41 42  2  0
 41 43  1  0
 33 28  1  0
 21 17  1  0
M  END
$$$$

     RDKit          2D

 43 44  0  0  0  0  0  0  0  0999 V2000
   -8.8235    0.2211    0.0000 N   0  0  0  0  0  0  0  0  0  0  0  0
   -8.3600    1.6477    0.0000 C   0  0  0  0  0  0  0  0  0  0  0  0
   -9.3637    2.7625    0.0000 C   0  0  0  0  0  0  0  0  0  0  0  0
  -10.8309    2.4506    0.0000 C   0  0  0  0  0  0  0  0  0  0  0  0
  -11.8346    3.5653    0.0000 C   0  0  0  0  0  0  0  0  0  0  0  0
  -11.2944    1.0240    0.0000 C   0  0  0  0  0  0  0  0  0  0  0  0
   -6.8928    1.9596    0.0000 C   0  0  0  0  0  0  0  0  0  0  0  0
   -6.4292    3.3862    0.0000 O   0  0  0  0  0  0  0  0  0  0  0  0
   -5.8891    0.8449    0.0000 N   0  0  0  0  0  0  0  0  0  0  0  0
   -4.4218    1.1568    0.0000 C   0  0  0  0  0  0  0  0  0  0  0  0
   -3.9583    2.5833    0.0000 C   0  0  0  0  0  0  0  0  0  0  0  0
   -2.4911    2.8952    0.0000 C   0  0  0  0  0  0  0  0  0  0  0  0
   -2.0276    4.3218    0.0000 C   0  0  0  0  0  0  0  0  0  0  0  0
   -1.4874    1.7805    0.0000 C   0  0  0  0  0  0  0  0  0  0  0  0
   -3.4182    0.0420    0.0000 C   0  0  0  0  0  0  0  0  0  0  0  0
   -1.9509    0.3539    0.0000 O   0  0  0  0  0  0  0  0  0  0  0  0
   -3.8817   -1.3846    0.0000 N   0  0  0  0  0  0  0  0  0  0  0  0
   -5.3083   -1.8481    0.0000 C   0  0  0  0  0  0  0  0  0  0  0  0
   -5.3083   -3.3481    0.0000 C   0  0  0  0  0  0  0  0  0  0  0  0
   -3.8817   -3.8116    0.0000 C   0  0  0  0  0  0  0  0  0  0  0  0
   -3.0000   -2.5981    0.0000 C   0  0  0  0  0  0  0  0  0  0  0  0
   -1.5000   -2.5981    0.0000 C   0  0  0  0  0  0  0  0  0  0  0  0
   -0.7500   -1.2990    0.0000 O   0  0  0  0  0  0  0  0  0  0  0  0
   -0.7500   -3.8971    0.0000 N   0  0  0  0  0  0  0  0  0  0  0  0
   -1.5000   -5.1962    0.0000 C   0  0  0  0  0  0  0  0  0  0  0  0
    0.7500   -3.8971    0.0000 C   0  0  0  0  0  0  0  0  0  0  0  0
    1.5000   -2.5981    0.0000 C   0  0  0  0  0  0  0  0  0  0  0  0
    3.0000   -2.5981    0.0000 C   0  0  0  0  0  0  0  0  0  0  0  0
    3.7500   -1.2990    0.0000 C   0  0  0  0  0  0  0  0  0  0  0  0
    5.2500   -1.2990    0.0000 C   0  0  0  0  0  0  0  0  0  0  0  0
    6.0000   -2.5981    0.0000 C   0  0  0  0  0  0  0  0  0  0  0  0
    5.2500   -3.8971    0.0000 C   0  0  0  0  0  0  0  0  0  0  0  0
    3.7500   -3.8971    0.0000 C   0  0  0  0  0  0  0  0  0  0  0  0
    1.5000   -5.1962    0.0000 C   0  0  0  0  0  0  0  0  0  0  0  0
    3.0000   -5.1962    0.0000 O   0  0  0  0  0  0  0  0  0  0  0  0
    0.7500   -6.4952    0.0000 N   0  0  0  0  0  0  0  0  0  0  0  0
    1.5000   -7.7942    0.0000 C   0  0  0  0  0  0  0  0  0  0  0  0
    0.7500   -9.0933    0.0000 C   0  0  0  0  0  0  0  0  0  0  0  0
    1.5000  -10.3923    0.0000 C   0  0  0  0  0  0  0  0  0  0  0  0
    2.2500  -11.6913    0.0000 C   0  0  0  0  0  0  0  0  0  0  0  0
    3.0000   -7.7942    0.0000 C   0  0  0  0  0  0  0  0  0  0  0  0
    3.7500   -6.4952    0.0000 O   0  0  0  0  0  0  0  0  0  0  0  0
    3.7500   -9.0933    0.0000 O   0  0  0  0  0  0  0  0  0  0  0  0
  2  1  1  6
  2  3  1  0
  3  4  1  0
  4  5  1  0
  4  6  1  0
  2  7  1  0
  7  8  2  0
  7  9  1  0
  9 10  1  0
 10 11  1  1
 11 12  1  0
 12 13  1  0
 12 14  1  0
 10 15  1  0
 15 16  2  0
 15 17  1  0
 17 18  1  0
 18 19  1  0
 19 20  1  0
 20 21  1  0
 21 22  1  6
 22 23  2  0
 22 24  1  0
 24 25  1  0
 24 26  1  0
 26 27  1  6
 27 28  1  0
 28 29  2  0
 29 30  1  0
 30 31  2  0
 31 32  1  0
 32 33  2  0
 26 34  1  0
 34 35  2  0
 34 36  1  0
 36 37  1  0
 37 38  1  6
 38 39  1  0
 39 40  3  0
 37 41  1  0
 41 42  2  0
 41 43  1  0
 33 28  1  0
 21 17  1  0
M  END
$$$$

     RDKit          2D

 44 45  0  0  0  0  0  0  0  0999 V2000
   -8.8235    0.2211    0.0000 N   0  0  0  0  0  0  0  0  0  0  0  0
  -10.2907   -0.0907    0.0000 C   0  0  0  0  0  0  0  0  0  0  0  0
   -8.3600    1.6477    0.0000 C   0  0  0  0  0  0  0  0  0  0  0  0
   -9.3637    2.7625    0.0000 C   0  0  0  0  0  0  0  0  0  0  0  0
  -10.8309    2.4506    0.0000 C   0  0  0  0  0  0  0  0  0  0  0  0
  -11.8346    3.5653    0.0000 C   0  0  0  0  0  0  0  0  0  0  0  0
  -11.2944    1.0240    0.0000 C   0  0  0  0  0  0  0  0  0  0  0  0
   -6.8928    1.9596    0.0000 C   0  0  0  0  0  0  0  0  0  0  0  0
   -6.4292    3.3862    0.0000 O   0  0  0  0  0  0  0  0  0  0  0  0
   -5.8891    0.8449    0.0000 N   0  0  0  0  0  0  0  0  0  0  0  0
   -4.4218    1.1568    0.0000 C   0  0  0  0  0  0  0  0  0  0  0  0
   -3.9583    2.5833    0.0000 C   0  0  0  0  0  0  0  0  0  0  0  0
   -2.4911    2.8952    0.0000 C   0  0  0  0  0  0  0  0  0  0  0  0
   -2.0276    4.3218    0.0000 C   0  0  0  0  0  0  0  0  0  0  0  0
   -1.4874    1.7805    0.0000 C   0  0  0  0  0  0  0  0  0  0  0  0
   -3.4182    0.0420    0.0000 C   0  0  0  0  0  0  0  0  0  0  0  0
   -1.9509    0.3539    0.0000 O   0  0  0  0  0  0  0  0  0  0  0  0
   -3.8817   -1.3846    0.0000 N   0  0  0  0  0  0  0  0  0  0  0  0
   -5.3083   -1.8481    0.0000 C   0  0  0  0  0  0  0  0  0  0  0  0
   -5.3083   -3.3481    0.0000 C   0  0  0  0  0  0  0  0  0  0  0  0
   -3.8817   -3.8116    0.0000 C   0  0  0  0  0  0  0  0  0  0  0  0
   -3.0000   -2.5981    0.0000 C   0  0  0  0  0  0  0  0  0  0  0  0
   -1.5000   -2.5981    0.0000 C   0  0  0  0  0  0  0  0  0  0  0  0
   -0.7500   -1.2990    0.0000 O   0  0  0  0  0  0  0  0  0  0  0  0
   -0.7500   -3.8971    0.0000 N   0  0  0  0  0  0  0  0  0  0  0  0
   -1.5000   -5.1962    0.0000 C   0  0  0  0  0  0  0  0  0  0  0  0
    0.7500   -3.8971    0.0000 C   0  0  0  0  0  0  0  0  0  0  0  0
    1.5000   -2.5981    0.0000 C   0  0  0  0  0  0  0  0  0  0  0  0
    3.0000   -2.5981    0.0000 C   0  0  0  0  0  0  0  0  0  0  0  0
    3.7500   -1.2990    0.0000 C   0  0  0  0  0  0  0  0  0  0  0  0
    5.2500   -1.2990    0.0000 C   0  0  0  0  0  0  0  0  0  0  0  0
    6.0000   -2.5981    0.0000 C   0  0  0  0  0  0  0  0  0  0  0  0
    5.2500   -3.8971    0.0000 C   0  0  0  0  0  0  0  0  0  0  0  0
    3.7500   -3.8971    0.0000 C   0  0  0  0  0  0  0  0  0  0  0  0
    1.5000   -5.1962    0.0000 C   0  0  0  0  0  0  0  0  0  0  0  0
    3.0000   -5.1962    0.0000 O   0  0  0  0  0  0  0  0  0  0  0  0
    0.7500   -6.4952    0.0000 N   0  0  0  0  0  0  0  0  0  0  0  0
    1.5000   -7.7942    0.0000 C   0  0  0  0  0  0  0  0  0  0  0  0
    0.7500   -9.0933    0.0000 C   0  0  0  0  0  0  0  0  0  0  0  0
    1.5000  -10.3923    0.0000 C   0  0  0  0  0  0  0  0  0  0  0  0
    2.2500  -11.6913    0.0000 C   0  0  0  0  0  0  0  0  0  0  0  0
    3.0000   -7.7942    0.0000 C   0  0  0  0  0  0  0  0  0  0  0  0
    3.7500   -6.4952    0.0000 O   0  0  0  0  0  0  0  0  0  0  0  0
    3.7500   -9.0933    0.0000 O   0  0  0  0  0  0  0  0  0  0  0  0
  1  2  1  0
  1  3  1  0
  3  4  1  1
  4  5  1  0
  5  6  1  0
  5  7  1  0
  3  8  1  0
  8  9  2  0
  8 10  1  0
 10 11  1  0
 11 12  1  1
 12 13  1  0
 13 14  1  0
 13 15  1  0
 11 16  1  0
 16 17  2  0
 16 18  1  0
 18 19  1  0
 19 20  1  0
 20 21  1  0
 21 22  1  0
 22 23  1  6
 23 24  2  0
 23 25  1  0
 25 26  1  0
 25 27  1  0
 27 28  1  6
 28 29  1  0
 29 30  2  0
 30 31  1  0
 31 32  2  0
 32 33  1  0
 33 34  2  0
 27 35  1  0
 35 36  2  0
 35 37  1  0
 37 38  1  0
 38 39  1  6
 39 40  1  0
 40 41  3  0
 38 42  1  0
 42 43  2  0
 42 44  1  0
 34 29  1  0
 22 18  1  0
M  END
$$$$

     RDKit          2D

 44 45  0  0  0  0  0  0  0  0999 V2000
   -8.8235    0.2211    0.0000 N   0  0  0  0  0  0  0  0  0  0  0  0
  -10.2907   -0.0907    0.0000 C   0  0  0  0  0  0  0  0  0  0  0  0
   -8.3600    1.6477    0.0000 C   0  0  0  0  0  0  0  0  0  0  0  0
   -9.3637    2.7625    0.0000 C   0  0  0  0  0  0  0  0  0  0  0  0
  -10.8309    2.4506    0.0000 C   0  0  0  0  0  0  0  0  0  0  0  0
  -11.8346    3.5653    0.0000 C   0  0  0  0  0  0  0  0  0  0  0  0
  -11.2944    1.0240    0.0000 C   0  0  0  0  0  0  0  0  0  0  0  0
   -6.8928    1.9596    0.0000 C   0  0  0  0  0  0  0  0  0  0  0  0
   -6.4292    3.3862    0.0000 O   0  0  0  0  0  0  0  0  0  0  0  0
   -5.8891    0.8449    0.0000 N   0  0  0  0  0  0  0  0  0  0  0  0
   -4.4218    1.1568    0.0000 C   0  0  0  0  0  0  0  0  0  0  0  0
   -3.9583    2.5833    0.0000 C   0  0  0  0  0  0  0  0  0  0  0  0
   -2.4911    2.8952    0.0000 C   0  0  0  0  0  0  0  0  0  0  0  0
   -2.0276    4.3218    0.0000 C   0  0  0  0  0  0  0  0  0  0  0  0
   -1.4874    1.7805    0.0000 C   0  0  0  0  0  0  0  0  0  0  0  0
   -3.4182    0.0420    0.0000 C   0  0  0  0  0  0  0  0  0  0  0  0
   -1.9509    0.3539    0.0000 O   0  0  0  0  0  0  0  0  0  0  0  0
   -3.8817   -1.3846    0.0000 N   0  0  0  0  0  0  0  0  0  0  0  0
   -5.3083   -1.8481    0.0000 C   0  0  0  0  0  0  0  0  0  0  0  0
   -5.3083   -3.3481    0.0000 C   0  0  0  0  0  0  0  0  0  0  0  0
   -3.8817   -3.8116    0.0000 C   0  0  0  0  0  0  0  0  0  0  0  0
   -3.0000   -2.5981    0.0000 C   0  0  0  0  0  0  0  0  0  0  0  0
   -1.5000   -2.5981    0.0000 C   0  0  0  0  0  0  0  0  0  0  0  0
   -0.7500   -1.2990    0.0000 O   0  0  0  0  0  0  0  0  0  0  0  0
   -0.7500   -3.8971    0.0000 N   0  0  0  0  0  0  0  0  0  0  0  0
   -1.5000   -5.1962    0.0000 C   0  0  0  0  0  0  0  0  0  0  0  0
    0.7500   -3.8971    0.0000 C   0  0  0  0  0  0  0  0  0  0  0  0
    1.5000   -2.5981    0.0000 C   0  0  0  0  0  0  0  0  0  0  0  0
    3.0000   -2.5981    0.0000 C   0  0  0  0  0  0  0  0  0  0  0  0
    3.7500   -1.2990    0.0000 C   0  0  0  0  0  0  0  0  0  0  0  0
    5.2500   -1.2990    0.0000 C   0  0  0  0  0  0  0  0  0  0  0  0
    6.0000   -2.5981    0.0000 C   0  0  0  0  0  0  0  0  0  0  0  0
    5.2500   -3.8971    0.0000 C   0  0  0  0  0  0  0  0  0  0  0  0
    3.7500   -3.8971    0.0000 C   0  0  0  0  0  0  0  0  0  0  0  0
    1.5000   -5.1962    0.0000 C   0  0  0  0  0  0  0  0  0  0  0  0
    3.0000   -5.1962    0.0000 O   0  0  0  0  0  0  0  0  0  0  0  0
    0.7500   -6.4952    0.0000 N   0  0  0  0  0  0  0  0  0  0  0  0
    1.5000   -7.7942    0.0000 C   0  0  0  0  0  0  0  0  0  0  0  0
    0.7500   -9.0933    0.0000 C   0  0  0  0  0  0  0  0  0  0  0  0
    1.5000  -10.3923    0.0000 C   0  0  0  0  0  0  0  0  0  0  0  0
    2.2500  -11.6913    0.0000 C   0  0  0  0  0  0  0  0  0  0  0  0
    3.0000   -7.7942    0.0000 C   0  0  0  0  0  0  0  0  0  0  0  0
    3.7500   -6.4952    0.0000 O   0  0  0  0  0  0  0  0  0  0  0  0
    3.7500   -9.0933    0.0000 O   0  0  0  0  0  0  0  0  0  0  0  0
  1  2  1  0
  1  3  1  0
  3  4  1  6
  4  5  1  0
  5  6  1  0
  5  7  1  0
  3  8  1  0
  8  9  2  0
  8 10  1  0
 10 11  1  0
 11 12  1  1
 12 13  1  0
 13 14  1  0
 13 15  1  0
 11 16  1  0
 16 17  2  0
 16 18  1  0
 18 19  1  0
 19 20  1  0
 20 21  1  0
 21 22  1  0
 22 23  1  6
 23 24  2  0
 23 25  1  0
 25 26  1  0
 25 27  1  0
 27 28  1  6
 28 29  1  0
 29 30  2  0
 30 31  1  0
 31 32  2  0
 32 33  1  0
 33 34  2  0
 27 35  1  0
 35 36  2  0
 35 37  1  0
 37 38  1  0
 38 39  1  6
 39 40  1  0
 40 41  3  0
 38 42  1  0
 42 43  2  0
 42 44  1  0
 34 29  1  0
 22 18  1  0
M  END
$$$$

     RDKit          2D

 43 44  0  0  0  0  0  0  0  0999 V2000
   -8.8235    0.2211    0.0000 N   0  0  0  0  0  0  0  0  0  0  0  0
   -8.3600    1.6477    0.0000 C   0  0  0  0  0  0  0  0  0  0  0  0
   -9.3637    2.7625    0.0000 C   0  0  0  0  0  0  0  0  0  0  0  0
  -10.8309    2.4506    0.0000 C   0  0  0  0  0  0  0  0  0  0  0  0
  -11.8346    3.5653    0.0000 C   0  0  0  0  0  0  0  0  0  0  0  0
  -11.2944    1.0240    0.0000 C   0  0  0  0  0  0  0  0  0  0  0  0
   -6.8928    1.9596    0.0000 C   0  0  0  0  0  0  0  0  0  0  0  0
   -6.4292    3.3862    0.0000 O   0  0  0  0  0  0  0  0  0  0  0  0
   -5.8891    0.8449    0.0000 N   0  0  0  0  0  0  0  0  0  0  0  0
   -4.4218    1.1568    0.0000 C   0  0  0  0  0  0  0  0  0  0  0  0
   -3.9583    2.5833    0.0000 C   0  0  0  0  0  0  0  0  0  0  0  0
   -2.4911    2.8952    0.0000 C   0  0  0  0  0  0  0  0  0  0  0  0
   -2.0276    4.3218    0.0000 C   0  0  0  0  0  0  0  0  0  0  0  0
   -1.4874    1.7805    0.0000 C   0  0  0  0  0  0  0  0  0  0  0  0
   -3.4182    0.0420    0.0000 C   0  0  0  0  0  0  0  0  0  0  0  0
   -1.9509    0.3539    0.0000 O   0  0  0  0  0  0  0  0  0  0  0  0
   -3.8817   -1.3846    0.0000 N   0  0  0  0  0  0  0  0  0  0  0  0
   -5.3083   -1.8481    0.0000 C   0  0  0  0  0  0  0  0  0  0  0  0
   -5.3083   -3.3481    0.0000 C   0  0  0  0  0  0  0  0  0  0  0  0
   -3.8817   -3.8116    0.0000 C   0  0  0  0  0  0  0  0  0  0  0  0
   -3.0000   -2.5981    0.0000 C   0  0  0  0  0  0  0  0  0  0  0  0
   -1.5000   -2.5981    0.0000 C   0  0  0  0  0  0  0  0  0  0  0  0
   -0.7500   -1.2990    0.0000 O   0  0  0  0  0  0  0  0  0  0  0  0
   -0.7500   -3.8971    0.0000 N   0  0  0  0  0  0  0  0  0  0  0  0
   -1.5000   -5.1962    0.0000 C   0  0  0  0  0  0  0  0  0  0  0  0
    0.7500   -3.8971    0.0000 C   0  0  0  0  0  0  0  0  0  0  0  0
    1.5000   -2.5981    0.0000 C   0  0  0  0  0  0  0  0  0  0  0  0
    3.0000   -2.5981    0.0000 C   0  0  0  0  0  0  0  0  0  0  0  0
    3.7500   -1.2990    0.0000 C   0  0  0  0  0  0  0  0  0  0  0  0
    5.2500   -1.2990    0.0000 C   0  0  0  0  0  0  0  0  0  0  0  0
    6.0000   -2.5981    0.0000 C   0  0  0  0  0  0  0  0  0  0  0  0
    5.2500   -3.8971    0.0000 C   0  0  0  0  0  0  0  0  0  0  0  0
    3.7500   -3.8971    0.0000 C   0  0  0  0  0  0  0  0  0  0  0  0
    1.5000   -5.1962    0.0000 C   0  0  0  0  0  0  0  0  0  0  0  0
    3.0000   -5.1962    0.0000 O   0  0  0  0  0  0  0  0  0  0  0  0
    0.7500   -6.4952    0.0000 N   0  0  0  0  0  0  0  0  0  0  0  0
    1.5000   -7.7942    0.0000 C   0  0  0  0  0  0  0  0  0  0  0  0
    0.7500   -9.0933    0.0000 C   0  0  0  0  0  0  0  0  0  0  0  0
    1.5000  -10.3923    0.0000 C   0  0  0  0  0  0  0  0  0  0  0  0
    2.2500  -11.6913    0.0000 C   0  0  0  0  0  0  0  0  0  0  0  0
    3.0000   -7.7942    0.0000 C   0  0  0  0  0  0  0  0  0  0  0  0
    3.7500   -6.4952    0.0000 O   0  0  0  0  0  0  0  0  0  0  0  0
    3.7500   -9.0933    0.0000 O   0  0  0  0  0  0  0  0  0  0  0  0
  2  1  1  1
  2  3  1  0
  3  4  1  0
  4  5  1  0
  4  6  1  0
  2  7  1  0
  7  8  2  0
  7  9  1  0
  9 10  1  0
 10 11  1  6
 11 12  1  0
 12 13  1  0
 12 14  1  0
 10 15  1  0
 15 16  2  0
 15 17  1  0
 17 18  1  0
 18 19  1  0
 19 20  1  0
 20 21  1  0
 21 22  1  6
 22 23  2  0
 22 24  1  0
 24 25  1  0
 24 26  1  0
 26 27  1  6
 27 28  1  0
 28 29  2  0
 29 30  1  0
 30 31  2  0
 31 32  1  0
 32 33  2  0
 26 34  1  0
 34 35  2  0
 34 36  1  0
 36 37  1  0
 37 38  1  6
 38 39  1  0
 39 40  3  0
 37 41  1  0
 41 42  2  0
 41 43  1  0
 33 28  1  0
 21 17  1  0
M  END
$$$$

     RDKit          2D

 43 44  0  0  0  0  0  0  0  0999 V2000
   -8.8235    0.2211    0.0000 N   0  0  0  0  0  0  0  0  0  0  0  0
   -8.3600    1.6477    0.0000 C   0  0  0  0  0  0  0  0  0  0  0  0
   -9.3637    2.7625    0.0000 C   0  0  0  0  0  0  0  0  0  0  0  0
  -10.8309    2.4506    0.0000 C   0  0  0  0  0  0  0  0  0  0  0  0
  -11.8346    3.5653    0.0000 C   0  0  0  0  0  0  0  0  0  0  0  0
  -11.2944    1.0240    0.0000 C   0  0  0  0  0  0  0  0  0  0  0  0
   -6.8928    1.9596    0.0000 C   0  0  0  0  0  0  0  0  0  0  0  0
   -6.4292    3.3862    0.0000 O   0  0  0  0  0  0  0  0  0  0  0  0
   -5.8891    0.8449    0.0000 N   0  0  0  0  0  0  0  0  0  0  0  0
   -4.4218    1.1568    0.0000 C   0  0  0  0  0  0  0  0  0  0  0  0
   -3.9583    2.5833    0.0000 C   0  0  0  0  0  0  0  0  0  0  0  0
   -2.4911    2.8952    0.0000 C   0  0  0  0  0  0  0  0  0  0  0  0
   -2.0276    4.3218    0.0000 C   0  0  0  0  0  0  0  0  0  0  0  0
   -1.4874    1.7805    0.0000 C   0  0  0  0  0  0  0  0  0  0  0  0
   -3.4182    0.0420    0.0000 C   0  0  0  0  0  0  0  0  0  0  0  0
   -1.9509    0.3539    0.0000 O   0  0  0  0  0  0  0  0  0  0  0  0
   -3.8817   -1.3846    0.0000 N   0  0  0  0  0  0  0  0  0  0  0  0
   -5.3083   -1.8481    0.0000 C   0  0  0  0  0  0  0  0  0  0  0  0
   -5.3083   -3.3481    0.0000 C   0  0  0  0  0  0  0  0  0  0  0  0
   -3.8817   -3.8116    0.0000 C   0  0  0  0  0  0  0  0  0  0  0  0
   -3.0000   -2.5981    0.0000 C   0  0  0  0  0  0  0  0  0  0  0  0
   -1.5000   -2.5981    0.0000 C   0  0  0  0  0  0  0  0  0  0  0  0
   -0.7500   -1.2990    0.0000 O   0  0  0  0  0  0  0  0  0  0  0  0
   -0.7500   -3.8971    0.0000 N   0  0  0  0  0  0  0  0  0  0  0  0
   -1.5000   -5.1962    0.0000 C   0  0  0  0  0  0  0  0  0  0  0  0
    0.7500   -3.8971    0.0000 C   0  0  0  0  0  0  0  0  0  0  0  0
    1.5000   -2.5981    0.0000 C   0  0  0  0  0  0  0  0  0  0  0  0
    3.0000   -2.5981    0.0000 C   0  0  0  0  0  0  0  0  0  0  0  0
    3.7500   -1.2990    0.0000 C   0  0  0  0  0  0  0  0  0  0  0  0
    5.2500   -1.2990    0.0000 C   0  0  0  0  0  0  0  0  0  0  0  0
    6.0000   -2.5981    0.0000 C   0  0  0  0  0  0  0  0  0  0  0  0
    5.2500   -3.8971    0.0000 C   0  0  0  0  0  0  0  0  0  0  0  0
    3.7500   -3.8971    0.0000 C   0  0  0  0  0  0  0  0  0  0  0  0
    1.5000   -5.1962    0.0000 C   0  0  0  0  0  0  0  0  0  0  0  0
    3.0000   -5.1962    0.0000 O   0  0  0  0  0  0  0  0  0  0  0  0
    0.7500   -6.4952    0.0000 N   0  0  0  0  0  0  0  0  0  0  0  0
    1.5000   -7.7942    0.0000 C   0  0  0  0  0  0  0  0  0  0  0  0
    0.7500   -9.0933    0.0000 C   0  0  0  0  0  0  0  0  0  0  0  0
    1.5000  -10.3923    0.0000 C   0  0  0  0  0  0  0  0  0  0  0  0
    2.2500  -11.6913    0.0000 C   0  0  0  0  0  0  0  0  0  0  0  0
    3.0000   -7.7942    0.0000 C   0  0  0  0  0  0  0  0  0  0  0  0
    3.7500   -6.4952    0.0000 O   0  0  0  0  0  0  0  0  0  0  0  0
    3.7500   -9.0933    0.0000 O   0  0  0  0  0  0  0  0  0  0  0  0
  2  1  1  6
  2  3  1  0
  3  4  1  0
  4  5  1  0
  4  6  1  0
  2  7  1  0
  7  8  2  0
  7  9  1  0
  9 10  1  0
 10 11  1  6
 11 12  1  0
 12 13  1  0
 12 14  1  0
 10 15  1  0
 15 16  2  0
 15 17  1  0
 17 18  1  0
 18 19  1  0
 19 20  1  0
 20 21  1  0
 21 22  1  6
 22 23  2  0
 22 24  1  0
 24 25  1  0
 24 26  1  0
 26 27  1  6
 27 28  1  0
 28 29  2  0
 29 30  1  0
 30 31  2  0
 31 32  1  0
 32 33  2  0
 26 34  1  0
 34 35  2  0
 34 36  1  0
 36 37  1  0
 37 38  1  6
 38 39  1  0
 39 40  3  0
 37 41  1  0
 41 42  2  0
 41 43  1  0
 33 28  1  0
 21 17  1  0
M  END
$$$$

     RDKit          2D

 44 45  0  0  0  0  0  0  0  0999 V2000
   -8.8235    0.2211    0.0000 N   0  0  0  0  0  0  0  0  0  0  0  0
  -10.2907   -0.0907    0.0000 C   0  0  0  0  0  0  0  0  0  0  0  0
   -8.3600    1.6477    0.0000 C   0  0  0  0  0  0  0  0  0  0  0  0
   -9.3637    2.7625    0.0000 C   0  0  0  0  0  0  0  0  0  0  0  0
  -10.8309    2.4506    0.0000 C   0  0  0  0  0  0  0  0  0  0  0  0
  -11.8346    3.5653    0.0000 C   0  0  0  0  0  0  0  0  0  0  0  0
  -11.2944    1.0240    0.0000 C   0  0  0  0  0  0  0  0  0  0  0  0
   -6.8928    1.9596    0.0000 C   0  0  0  0  0  0  0  0  0  0  0  0
   -6.4292    3.3862    0.0000 O   0  0  0  0  0  0  0  0  0  0  0  0
   -5.8891    0.8449    0.0000 N   0  0  0  0  0  0  0  0  0  0  0  0
   -4.4218    1.1568    0.0000 C   0  0  0  0  0  0  0  0  0  0  0  0
   -3.9583    2.5833    0.0000 C   0  0  0  0  0  0  0  0  0  0  0  0
   -2.4911    2.8952    0.0000 C   0  0  0  0  0  0  0  0  0  0  0  0
   -2.0276    4.3218    0.0000 C   0  0  0  0  0  0  0  0  0  0  0  0
   -1.4874    1.7805    0.0000 C   0  0  0  0  0  0  0  0  0  0  0  0
   -3.4182    0.0420    0.0000 C   0  0  0  0  0  0  0  0  0  0  0  0
   -1.9509    0.3539    0.0000 O   0  0  0  0  0  0  0  0  0  0  0  0
   -3.8817   -1.3846    0.0000 N   0  0  0  0  0  0  0  0  0  0  0  0
   -5.3083   -1.8481    0.0000 C   0  0  0  0  0  0  0  0  0  0  0  0
   -5.3083   -3.3481    0.0000 C   0  0  0  0  0  0  0  0  0  0  0  0
   -3.8817   -3.8116    0.0000 C   0  0  0  0  0  0  0  0  0  0  0  0
   -3.0000   -2.5981    0.0000 C   0  0  0  0  0  0  0  0  0  0  0  0
   -1.5000   -2.5981    0.0000 C   0  0  0  0  0  0  0  0  0  0  0  0
   -0.7500   -1.2990    0.0000 O   0  0  0  0  0  0  0  0  0  0  0  0
   -0.7500   -3.8971    0.0000 N   0  0  0  0  0  0  0  0  0  0  0  0
   -1.5000   -5.1962    0.0000 C   0  0  0  0  0  0  0  0  0  0  0  0
    0.7500   -3.8971    0.0000 C   0  0  0  0  0  0  0  0  0  0  0  0
    1.5000   -2.5981    0.0000 C   0  0  0  0  0  0  0  0  0  0  0  0
    3.0000   -2.5981    0.0000 C   0  0  0  0  0  0  0  0  0  0  0  0
    3.7500   -1.2990    0.0000 C   0  0  0  0  0  0  0  0  0  0  0  0
    5.2500   -1.2990    0.0000 C   0  0  0  0  0  0  0  0  0  0  0  0
    6.0000   -2.5981    0.0000 C   0  0  0  0  0  0  0  0  0  0  0  0
    5.2500   -3.8971    0.0000 C   0  0  0  0  0  0  0  0  0  0  0  0
    3.7500   -3.8971    0.0000 C   0  0  0  0  0  0  0  0  0  0  0  0
    1.5000   -5.1962    0.0000 C   0  0  0  0  0  0  0  0  0  0  0  0
    3.0000   -5.1962    0.0000 O   0  0  0  0  0  0  0  0  0  0  0  0
    0.7500   -6.4952    0.0000 N   0  0  0  0  0  0  0  0  0  0  0  0
    1.5000   -7.7942    0.0000 C   0  0  0  0  0  0  0  0  0  0  0  0
    0.7500   -9.0933    0.0000 C   0  0  0  0  0  0  0  0  0  0  0  0
    1.5000  -10.3923    0.0000 C   0  0  0  0  0  0  0  0  0  0  0  0
    2.2500  -11.6913    0.0000 C   0  0  0  0  0  0  0  0  0  0  0  0
    3.0000   -7.7942    0.0000 C   0  0  0  0  0  0  0  0  0  0  0  0
    3.7500   -6.4952    0.0000 O   0  0  0  0  0  0  0  0  0  0  0  0
    3.7500   -9.0933    0.0000 O   0  0  0  0  0  0  0  0  0  0  0  0
  1  2  1  0
  1  3  1  0
  3  4  1  1
  4  5  1  0
  5  6  1  0
  5  7  1  0
  3  8  1  0
  8  9  2  0
  8 10  1  0
 10 11  1  0
 11 12  1  6
 12 13  1  0
 13 14  1  0
 13 15  1  0
 11 16  1  0
 16 17  2  0
 16 18  1  0
 18 19  1  0
 19 20  1  0
 20 21  1  0
 21 22  1  0
 22 23  1  6
 23 24  2  0
 23 25  1  0
 25 26  1  0
 25 27  1  0
 27 28  1  6
 28 29  1  0
 29 30  2  0
 30 31  1  0
 31 32  2  0
 32 33  1  0
 33 34  2  0
 27 35  1  0
 35 36  2  0
 35 37  1  0
 37 38  1  0
 38 39  1  6
 39 40  1  0
 40 41  3  0
 38 42  1  0
 42 43  2  0
 42 44  1  0
 34 29  1  0
 22 18  1  0
M  END
$$$$

     RDKit          2D

 44 45  0  0  0  0  0  0  0  0999 V2000
   -8.8235    0.2211    0.0000 N   0  0  0  0  0  0  0  0  0  0  0  0
  -10.2907   -0.0907    0.0000 C   0  0  0  0  0  0  0  0  0  0  0  0
   -8.3600    1.6477    0.0000 C   0  0  0  0  0  0  0  0  0  0  0  0
   -9.3637    2.7625    0.0000 C   0  0  0  0  0  0  0  0  0  0  0  0
  -10.8309    2.4506    0.0000 C   0  0  0  0  0  0  0  0  0  0  0  0
  -11.8346    3.5653    0.0000 C   0  0  0  0  0  0  0  0  0  0  0  0
  -11.2944    1.0240    0.0000 C   0  0  0  0  0  0  0  0  0  0  0  0
   -6.8928    1.9596    0.0000 C   0  0  0  0  0  0  0  0  0  0  0  0
   -6.4292    3.3862    0.0000 O   0  0  0  0  0  0  0  0  0  0  0  0
   -5.8891    0.8449    0.0000 N   0  0  0  0  0  0  0  0  0  0  0  0
   -4.4218    1.1568    0.0000 C   0  0  0  0  0  0  0  0  0  0  0  0
   -3.9583    2.5833    0.0000 C   0  0  0  0  0  0  0  0  0  0  0  0
   -2.4911    2.8952    0.0000 C   0  0  0  0  0  0  0  0  0  0  0  0
   -2.0276    4.3218    0.0000 C   0  0  0  0  0  0  0  0  0  0  0  0
   -1.4874    1.7805    0.0000 C   0  0  0  0  0  0  0  0  0  0  0  0
   -3.4182    0.0420    0.0000 C   0  0  0  0  0  0  0  0  0  0  0  0
   -1.9509    0.3539    0.0000 O   0  0  0  0  0  0  0  0  0  0  0  0
   -3.8817   -1.3846    0.0000 N   0  0  0  0  0  0  0  0  0  0  0  0
   -5.3083   -1.8481    0.0000 C   0  0  0  0  0  0  0  0  0  0  0  0
   -5.3083   -3.3481    0.0000 C   0  0  0  0  0  0  0  0  0  0  0  0
   -3.8817   -3.8116    0.0000 C   0  0  0  0  0  0  0  0  0  0  0  0
   -3.0000   -2.5981    0.0000 C   0  0  0  0  0  0  0  0  0  0  0  0
   -1.5000   -2.5981    0.0000 C   0  0  0  0  0  0  0  0  0  0  0  0
   -0.7500   -1.2990    0.0000 O   0  0  0  0  0  0  0  0  0  0  0  0
   -0.7500   -3.8971    0.0000 N   0  0  0  0  0  0  0  0  0  0  0  0
   -1.5000   -5.1962    0.0000 C   0  0  0  0  0  0  0  0  0  0  0  0
    0.7500   -3.8971    0.0000 C   0  0  0  0  0  0  0  0  0  0  0  0
    1.5000   -2.5981    0.0000 C   0  0  0  0  0  0  0  0  0  0  0  0
    3.0000   -2.5981    0.0000 C   0  0  0  0  0  0  0  0  0  0  0  0
    3.7500   -1.2990    0.0000 C   0  0  0  0  0  0  0  0  0  0  0  0
    5.2500   -1.2990    0.0000 C   0  0  0  0  0  0  0  0  0  0  0  0
    6.0000   -2.5981    0.0000 C   0  0  0  0  0  0  0  0  0  0  0  0
    5.2500   -3.8971    0.0000 C   0  0  0  0  0  0  0  0  0  0  0  0
    3.7500   -3.8971    0.0000 C   0  0  0  0  0  0  0  0  0  0  0  0
    1.5000   -5.1962    0.0000 C   0  0  0  0  0  0  0  0  0  0  0  0
    3.0000   -5.1962    0.0000 O   0  0  0  0  0  0  0  0  0  0  0  0
    0.7500   -6.4952    0.0000 N   0  0  0  0  0  0  0  0  0  0  0  0
    1.5000   -7.7942    0.0000 C   0  0  0  0  0  0  0  0  0  0  0  0
    0.7500   -9.0933    0.0000 C   0  0  0  0  0  0  0  0  0  0  0  0
    1.5000  -10.3923    0.0000 C   0  0  0  0  0  0  0  0  0  0  0  0
    2.2500  -11.6913    0.0000 C   0  0  0  0  0  0  0  0  0  0  0  0
    3.0000   -7.7942    0.0000 C   0  0  0  0  0  0  0  0  0  0  0  0
    3.7500   -6.4952    0.0000 O   0  0  0  0  0  0  0  0  0  0  0  0
    3.7500   -9.0933    0.0000 O   0  0  0  0  0  0  0  0  0  0  0  0
  1  2  1  0
  1  3  1  0
  3  4  1  6
  4  5  1  0
  5  6  1  0
  5  7  1  0
  3  8  1  0
  8  9  2  0
  8 10  1  0
 10 11  1  0
 11 12  1  6
 12 13  1  0
 13 14  1  0
 13 15  1  0
 11 16  1  0
 16 17  2  0
 16 18  1  0
 18 19  1  0
 19 20  1  0
 20 21  1  0
 21 22  1  0
 22 23  1  6
 23 24  2  0
 23 25  1  0
 25 26  1  0
 25 27  1  0
 27 28  1  6
 28 29  1  0
 29 30  2  0
 30 31  1  0
 31 32  2  0
 32 33  1  0
 33 34  2  0
 27 35  1  0
 35 36  2  0
 35 37  1  0
 37 38  1  0
 38 39  1  6
 39 40  1  0
 40 41  3  0
 38 42  1  0
 42 43  2  0
 42 44  1  0
 34 29  1  0
 22 18  1  0
M  END
$$$$

     RDKit          2D

 44 45  0  0  0  0  0  0  0  0999 V2000
   -3.0313    5.4365    0.0000 N   0  0  0  0  0  0  0  0  0  0  0  0
   -2.0276    4.3218    0.0000 C   0  0  0  0  0  0  0  0  0  0  0  0
   -0.5604    4.6337    0.0000 C   0  0  0  0  0  0  0  0  0  0  0  0
   -0.0968    6.0602    0.0000 C   0  0  0  0  0  0  0  0  0  0  0  0
    1.3704    6.3721    0.0000 C   0  0  0  0  0  0  0  0  0  0  0  0
   -1.1005    7.1750    0.0000 C   0  0  0  0  0  0  0  0  0  0  0  0
   -2.4911    2.8952    0.0000 C   0  0  0  0  0  0  0  0  0  0  0  0
   -1.4874    1.7805    0.0000 O   0  0  0  0  0  0  0  0  0  0  0  0
   -3.9583    2.5833    0.0000 N   0  0  0  0  0  0  0  0  0  0  0  0
   -4.9620    3.6981    0.0000 C   0  0  0  0  0  0  0  0  0  0  0  0
   -4.4218    1.1568    0.0000 C   0  0  0  0  0  0  0  0  0  0  0  0
   -5.8891    0.8449    0.0000 C   0  0  0  0  0  0  0  0  0  0  0  0
   -6.8928    1.9596    0.0000 C   0  0  0  0  0  0  0  0  0  0  0  0
   -8.3600    1.6477    0.0000 C   0  0  0  0  0  0  0  0  0  0  0  0
   -6.4292    3.3862    0.0000 C   0  0  0  0  0  0  0  0  0  0  0  0
   -3.4182    0.0420    0.0000 C   0  0  0  0  0  0  0  0  0  0  0  0
   -1.9509    0.3539    0.0000 O   0  0  0  0  0  0  0  0  0  0  0  0
   -3.8817   -1.3846    0.0000 N   0  0  0  0  0  0  0  0  0  0  0  0
   -5.3083   -1.8481    0.0000 C   0  0  0  0  0  0  0  0  0  0  0  0
   -5.3083   -3.3481    0.0000 C   0  0  0  0  0  0  0  0  0  0  0  0
   -3.8817   -3.8116    0.0000 C   0  0  0  0  0  0  0  0  0  0  0  0
   -3.0000   -2.5981    0.0000 C   0  0  0  0  0  0  0  0  0  0  0  0
   -1.5000   -2.5981    0.0000 C   0  0  0  0  0  0  0  0  0  0  0  0
   -0.7500   -1.2990    0.0000 O   0  0  0  0  0  0  0  0  0  0  0  0
   -0.7500   -3.8971    0.0000 N   0  0  0  0  0  0  0  0  0  0  0  0
   -1.5000   -5.1962    0.0000 C   0  0  0  0  0  0  0  0  0  0  0  0
    0.7500   -3.8971    0.0000 C   0  0  0  0  0  0  0  0  0  0  0  0
    1.5000   -2.5981    0.0000 C   0  0  0  0  0  0  0  0  0  0  0  0
    3.0000   -2.5981    0.0000 C   0  0  0  0  0  0  0  0  0  0  0  0
    3.7500   -1.2990    0.0000 C   0  0  0  0  0  0  0  0  0  0  0  0
    5.2500   -1.2990    0.0000 C   0  0  0  0  0  0  0  0  0  0  0  0
    6.0000   -2.5981    0.0000 C   0  0  0  0  0  0  0  0  0  0  0  0
    5.2500   -3.8971    0.0000 C   0  0  0  0  0  0  0  0  0  0  0  0
    3.7500   -3.8971    0.0000 C   0  0  0  0  0  0  0  0  0  0  0  0
    1.5000   -5.1962    0.0000 C   0  0  0  0  0  0  0  0  0  0  0  0
    3.0000   -5.1962    0.0000 O   0  0  0  0  0  0  0  0  0  0  0  0
    0.7500   -6.4952    0.0000 N   0  0  0  0  0  0  0  0  0  0  0  0
    1.5000   -7.7942    0.0000 C   0  0  0  0  0  0  0  0  0  0  0  0
    0.7500   -9.0933    0.0000 C   0  0  0  0  0  0  0  0  0  0  0  0
    1.5000  -10.3923    0.0000 C   0  0  0  0  0  0  0  0  0  0  0  0
    2.2500  -11.6913    0.0000 C   0  0  0  0  0  0  0  0  0  0  0  0
    3.0000   -7.7942    0.0000 C   0  0  0  0  0  0  0  0  0  0  0  0
    3.7500   -6.4952    0.0000 O   0  0  0  0  0  0  0  0  0  0  0  0
    3.7500   -9.0933    0.0000 O   0  0  0  0  0  0  0  0  0  0  0  0
  2  1  1  1
  2  3  1  0
  3  4  1  0
  4  5  1  0
  4  6  1  0
  2  7  1  0
  7  8  2  0
  7  9  1  0
  9 10  1  0
  9 11  1  0
 11 12  1  6
 12 13  1  0
 13 14  1  0
 13 15  1  0
 11 16  1  0
 16 17  2  0
 16 18  1  0
 18 19  1  0
 19 20  1  0
 20 21  1  0
 21 22  1  0
 22 23  1  6
 23 24  2  0
 23 25  1  0
 25 26  1  0
 25 27  1  0
 27 28  1  6
 28 29  1  0
 29 30  2  0
 30 31  1  0
 31 32  2  0
 32 33  1  0
 33 34  2  0
 27 35  1  0
 35 36  2  0
 35 37  1  0
 37 38  1  0
 38 39  1  6
 39 40  1  0
 40 41  3  0
 38 42  1  0
 42 43  2  0
 42 44  1  0
 34 29  1  0
 22 18  1  0
M  END
$$$$

     RDKit          2D

 44 45  0  0  0  0  0  0  0  0999 V2000
   -3.0313    5.4365    0.0000 N   0  0  0  0  0  0  0  0  0  0  0  0
   -2.0276    4.3218    0.0000 C   0  0  0  0  0  0  0  0  0  0  0  0
   -0.5604    4.6337    0.0000 C   0  0  0  0  0  0  0  0  0  0  0  0
   -0.0968    6.0602    0.0000 C   0  0  0  0  0  0  0  0  0  0  0  0
    1.3704    6.3721    0.0000 C   0  0  0  0  0  0  0  0  0  0  0  0
   -1.1005    7.1750    0.0000 C   0  0  0  0  0  0  0  0  0  0  0  0
   -2.4911    2.8952    0.0000 C   0  0  0  0  0  0  0  0  0  0  0  0
   -1.4874    1.7805    0.0000 O   0  0  0  0  0  0  0  0  0  0  0  0
   -3.9583    2.5833    0.0000 N   0  0  0  0  0  0  0  0  0  0  0  0
   -4.9620    3.6981    0.0000 C   0  0  0  0  0  0  0  0  0  0  0  0
   -4.4218    1.1568    0.0000 C   0  0  0  0  0  0  0  0  0  0  0  0
   -5.8891    0.8449    0.0000 C   0  0  0  0  0  0  0  0  0  0  0  0
   -6.8928    1.9596    0.0000 C   0  0  0  0  0  0  0  0  0  0  0  0
   -8.3600    1.6477    0.0000 C   0  0  0  0  0  0  0  0  0  0  0  0
   -6.4292    3.3862    0.0000 C   0  0  0  0  0  0  0  0  0  0  0  0
   -3.4182    0.0420    0.0000 C   0  0  0  0  0  0  0  0  0  0  0  0
   -1.9509    0.3539    0.0000 O   0  0  0  0  0  0  0  0  0  0  0  0
   -3.8817   -1.3846    0.0000 N   0  0  0  0  0  0  0  0  0  0  0  0
   -5.3083   -1.8481    0.0000 C   0  0  0  0  0  0  0  0  0  0  0  0
   -5.3083   -3.3481    0.0000 C   0  0  0  0  0  0  0  0  0  0  0  0
   -3.8817   -3.8116    0.0000 C   0  0  0  0  0  0  0  0  0  0  0  0
   -3.0000   -2.5981    0.0000 C   0  0  0  0  0  0  0  0  0  0  0  0
   -1.5000   -2.5981    0.0000 C   0  0  0  0  0  0  0  0  0  0  0  0
   -0.7500   -1.2990    0.0000 O   0  0  0  0  0  0  0  0  0  0  0  0
   -0.7500   -3.8971    0.0000 N   0  0  0  0  0  0  0  0  0  0  0  0
   -1.5000   -5.1962    0.0000 C   0  0  0  0  0  0  0  0  0  0  0  0
    0.7500   -3.8971    0.0000 C   0  0  0  0  0  0  0  0  0  0  0  0
    1.5000   -2.5981    0.0000 C   0  0  0  0  0  0  0  0  0  0  0  0
    3.0000   -2.5981    0.0000 C   0  0  0  0  0  0  0  0  0  0  0  0
    3.7500   -1.2990    0.0000 C   0  0  0  0  0  0  0  0  0  0  0  0
    5.2500   -1.2990    0.0000 C   0  0  0  0  0  0  0  0  0  0  0  0
    6.0000   -2.5981    0.0000 C   0  0  0  0  0  0  0  0  0  0  0  0
    5.2500   -3.8971    0.0000 C   0  0  0  0  0  0  0  0  0  0  0  0
    3.7500   -3.8971    0.0000 C   0  0  0  0  0  0  0  0  0  0  0  0
    1.5000   -5.1962    0.0000 C   0  0  0  0  0  0  0  0  0  0  0  0
    3.0000   -5.1962    0.0000 O   0  0  0  0  0  0  0  0  0  0  0  0
    0.7500   -6.4952    0.0000 N   0  0  0  0  0  0  0  0  0  0  0  0
    1.5000   -7.7942    0.0000 C   0  0  0  0  0  0  0  0  0  0  0  0
    0.7500   -9.0933    0.0000 C   0  0  0  0  0  0  0  0  0  0  0  0
    1.5000  -10.3923    0.0000 C   0  0  0  0  0  0  0  0  0  0  0  0
    2.2500  -11.6913    0.0000 C   0  0  0  0  0  0  0  0  0  0  0  0
    3.0000   -7.7942    0.0000 C   0  0  0  0  0  0  0  0  0  0  0  0
    3.7500   -6.4952    0.0000 O   0  0  0  0  0  0  0  0  0  0  0  0
    3.7500   -9.0933    0.0000 O   0  0  0  0  0  0  0  0  0  0  0  0
  2  1  1  6
  2  3  1  0
  3  4  1  0
  4  5  1  0
  4  6  1  0
  2  7  1  0
  7  8  2  0
  7  9  1  0
  9 10  1  0
  9 11  1  0
 11 12  1  6
 12 13  1  0
 13 14  1  0
 13 15  1  0
 11 16  1  0
 16 17  2  0
 16 18  1  0
 18 19  1  0
 19 20  1  0
 20 21  1  0
 21 22  1  0
 22 23  1  6
 23 24  2  0
 23 25  1  0
 25 26  1  0
 25 27  1  0
 27 28  1  6
 28 29  1  0
 29 30  2  0
 30 31  1  0
 31 32  2  0
 32 33  1  0
 33 34  2  0
 27 35  1  0
 35 36  2  0
 35 37  1  0
 37 38  1  0
 38 39  1  6
 39 40  1  0
 40 41  3  0
 38 42  1  0
 42 43  2  0
 42 44  1  0
 34 29  1  0
 22 18  1  0
M  END
$$$$

     RDKit          2D

 23 22  0  0  0  0  0  0  0  0999 V2000
    3.8971    2.2500    0.0000 N   0  0  0  0  0  0  0  0  0  0  0  0
    2.5981    3.0000    0.0000 C   0  0  0  0  0  0  0  0  0  0  0  0
    1.2990    2.2500    0.0000 C   0  0  0  0  0  0  0  0  0  0  0  0
    1.2990    0.7500    0.0000 C   0  0  0  0  0  0  0  0  0  0  0  0
    0.0000    0.0000    0.0000 C   0  0  0  0  0  0  0  0  0  0  0  0
    2.5981   -0.0000    0.0000 C   0  0  0  0  0  0  0  0  0  0  0  0
    2.5981    4.5000    0.0000 C   0  0  0  0  0  0  0  0  0  0  0  0
    1.2990    5.2500    0.0000 O   0  0  0  0  0  0  0  0  0  0  0  0
    3.8971    5.2500    0.0000 N   0  0  0  0  0  0  0  0  0  0  0  0
    3.8971    6.7500    0.0000 C   0  0  0  0  0  0  0  0  0  0  0  0
    5.1962    7.5000    0.0000 C   0  0  0  0  0  0  0  0  0  0  0  0
    6.4952    6.7500    0.0000 O   0  0  0  0  0  0  0  0  0  0  0  0
    5.1962    9.0000    0.0000 C   0  0  0  0  0  0  0  0  0  0  0  0
    2.5981    7.5000    0.0000 C   0  0  0  0  0  0  0  0  0  0  0  0
    1.2990    6.7500    0.0000 O   0  0  0  0  0  0  0  0  0  0  0  0
    2.5981    9.0000    0.0000 N   0  0  0  0  0  0  0  0  0  0  0  0
    1.2990    9.7500    0.0000 C   0  0  0  0  0  0  0  0  0  0  0  0
    1.2990   11.2500    0.0000 C   0  0  0  0  0  0  0  0  0  0  0  0
    0.0000   12.0000    0.0000 C   0  0  0  0  0  0  0  0  0  0  0  0
   -1.2990   12.7500    0.0000 C   0  0  0  0  0  0  0  0  0  0  0  0
    0.0000    9.0000    0.0000 C   0  0  0  0  0  0  0  0  0  0  0  0
    0.0000    7.5000    0.0000 O   0  0  0  0  0  0  0  0  0  0  0  0
   -1.2990    9.7500    0.0000 O   0  0  0  0  0  0  0  0  0  0  0  0
  2  1  1  1
  2  3  1  0
  3  4  1  0
  4  5  1  0
  4  6  1  0
  2  7  1  0
  7  8  2  0
  7  9  1  0
 10  9  1  6
 10 11  1  0
 11 12  1  0
 11 13  1  1
 10 14  1  0
 14 15  2  0
 14 16  1  0
 16 17  1  0
 17 18  1  6
 18 19  1  0
 19 20  3  0
 17 21  1  0
 21 22  2  0
 21 23  1  0
M  END
$$$$

     RDKit          2D

 23 22  0  0  0  0  0  0  0  0999 V2000
    3.8971    2.2500    0.0000 N   0  0  0  0  0  0  0  0  0  0  0  0
    2.5981    3.0000    0.0000 C   0  0  0  0  0  0  0  0  0  0  0  0
    1.2990    2.2500    0.0000 C   0  0  0  0  0  0  0  0  0  0  0  0
    1.2990    0.7500    0.0000 C   0  0  0  0  0  0  0  0  0  0  0  0
    0.0000    0.0000    0.0000 C   0  0  0  0  0  0  0  0  0  0  0  0
    2.5981   -0.0000    0.0000 C   0  0  0  0  0  0  0  0  0  0  0  0
    2.5981    4.5000    0.0000 C   0  0  0  0  0  0  0  0  0  0  0  0
    1.2990    5.2500    0.0000 O   0  0  0  0  0  0  0  0  0  0  0  0
    3.8971    5.2500    0.0000 N   0  0  0  0  0  0  0  0  0  0  0  0
    3.8971    6.7500    0.0000 C   0  0  0  0  0  0  0  0  0  0  0  0
    5.1962    7.5000    0.0000 C   0  0  0  0  0  0  0  0  0  0  0  0
    6.4952    6.7500    0.0000 O   0  0  0  0  0  0  0  0  0  0  0  0
    5.1962    9.0000    0.0000 C   0  0  0  0  0  0  0  0  0  0  0  0
    2.5981    7.5000    0.0000 C   0  0  0  0  0  0  0  0  0  0  0  0
    1.2990    6.7500    0.0000 O   0  0  0  0  0  0  0  0  0  0  0  0
    2.5981    9.0000    0.0000 N   0  0  0  0  0  0  0  0  0  0  0  0
    1.2990    9.7500    0.0000 C   0  0  0  0  0  0  0  0  0  0  0  0
    1.2990   11.2500    0.0000 C   0  0  0  0  0  0  0  0  0  0  0  0
    0.0000   12.0000    0.0000 C   0  0  0  0  0  0  0  0  0  0  0  0
   -1.2990   12.7500    0.0000 C   0  0  0  0  0  0  0  0  0  0  0  0
    0.0000    9.0000    0.0000 C   0  0  0  0  0  0  0  0  0  0  0  0
    0.0000    7.5000    0.0000 O   0  0  0  0  0  0  0  0  0  0  0  0
   -1.2990    9.7500    0.0000 O   0  0  0  0  0  0  0  0  0  0  0  0
  2  1  1  6
  2  3  1  0
  3  4  1  0
  4  5  1  0
  4  6  1  0
  2  7  1  0
  7  8  2  0
  7  9  1  0
 10  9  1  6
 10 11  1  0
 11 12  1  0
 11 13  1  1
 10 14  1  0
 14 15  2  0
 14 16  1  0
 16 17  1  0
 17 18  1  6
 18 19  1  0
 19 20  3  0
 17 21  1  0
 21 22  2  0
 21 23  1  0
M  END
$$$$

     RDKit          2D

 22 21  0  0  0  0  0  0  0  0999 V2000
    0.0000    3.0000    0.0000 N   0  0  0  0  0  0  0  0  0  0  0  0
    1.2990    2.2500    0.0000 C   0  0  0  0  0  0  0  0  0  0  0  0
    1.2990    0.7500    0.0000 C   0  0  0  0  0  0  0  0  0  0  0  0
    0.0000    0.0000    0.0000 C   0  0  0  0  0  0  0  0  0  0  0  0
    2.5981   -0.0000    0.0000 C   0  0  0  0  0  0  0  0  0  0  0  0
    2.5981    3.0000    0.0000 C   0  0  0  0  0  0  0  0  0  0  0  0
    3.8971    2.2500    0.0000 O   0  0  0  0  0  0  0  0  0  0  0  0
    2.5981    4.5000    0.0000 N   0  0  0  0  0  0  0  0  0  0  0  0
    3.8971    5.2500    0.0000 C   0  0  0  0  0  0  0  0  0  0  0  0
    3.8971    6.7500    0.0000 C   0  0  0  0  0  0  0  0  0  0  0  0
    2.5981    7.5000    0.0000 O   0  0  0  0  0  0  0  0  0  0  0  0
    5.1962    7.5000    0.0000 C   0  0  0  0  0  0  0  0  0  0  0  0
    5.1962    4.5000    0.0000 C   0  0  0  0  0  0  0  0  0  0  0  0
    5.1962    3.0000    0.0000 O   0  0  0  0  0  0  0  0  0  0  0  0
    6.4952    5.2500    0.0000 N   0  0  0  0  0  0  0  0  0  0  0  0
    7.7942    4.5000    0.0000 C   0  0  0  0  0  0  0  0  0  0  0  0
    9.0933    5.2500    0.0000 C   0  0  0  0  0  0  0  0  0  0  0  0
   10.3923    4.5000    0.0000 C   0  0  0  0  0  0  0  0  0  0  0  0
   11.6913    3.7500    0.0000 C   0  0  0  0  0  0  0  0  0  0  0  0
    7.7942    3.0000    0.0000 C   0  0  0  0  0  0  0  0  0  0  0  0
    6.4952    2.2500    0.0000 O   0  0  0  0  0  0  0  0  0  0  0  0
    9.0933    2.2500    0.0000 O   0  0  0  0  0  0  0  0  0  0  0  0
  2  1  1  6
  2  3  1  0
  3  4  1  0
  3  5  1  0
  2  6  1  0
  6  7  2  0
  6  8  1  0
  9  8  1  1
  9 10  1  0
 10 11  1  0
 10 12  1  6
  9 13  1  0
 13 14  2  0
 13 15  1  0
 15 16  1  0
 16 17  1  1
 17 18  1  0
 18 19  3  0
 16 20  1  0
 20 21  2  0
 20 22  1  0
M  END
$$$$

     RDKit          2D

 22 21  0  0  0  0  0  0  0  0999 V2000
    0.0000    3.0000    0.0000 N   0  0  0  0  0  0  0  0  0  0  0  0
    1.2990    2.2500    0.0000 C   0  0  0  0  0  0  0  0  0  0  0  0
    1.2990    0.7500    0.0000 C   0  0  0  0  0  0  0  0  0  0  0  0
    0.0000    0.0000    0.0000 C   0  0  0  0  0  0  0  0  0  0  0  0
    2.5981   -0.0000    0.0000 C   0  0  0  0  0  0  0  0  0  0  0  0
    2.5981    3.0000    0.0000 C   0  0  0  0  0  0  0  0  0  0  0  0
    3.8971    2.2500    0.0000 O   0  0  0  0  0  0  0  0  0  0  0  0
    2.5981    4.5000    0.0000 N   0  0  0  0  0  0  0  0  0  0  0  0
    3.8971    5.2500    0.0000 C   0  0  0  0  0  0  0  0  0  0  0  0
    3.8971    6.7500    0.0000 C   0  0  0  0  0  0  0  0  0  0  0  0
    2.5981    7.5000    0.0000 O   0  0  0  0  0  0  0  0  0  0  0  0
    5.1962    7.5000    0.0000 C   0  0  0  0  0  0  0  0  0  0  0  0
    5.1962    4.5000    0.0000 C   0  0  0  0  0  0  0  0  0  0  0  0
    5.1962    3.0000    0.0000 O   0  0  0  0  0  0  0  0  0  0  0  0
    6.4952    5.2500    0.0000 N   0  0  0  0  0  0  0  0  0  0  0  0
    7.7942    4.5000    0.0000 C   0  0  0  0  0  0  0  0  0  0  0  0
    9.0933    5.2500    0.0000 C   0  0  0  0  0  0  0  0  0  0  0  0
   10.3923    4.5000    0.0000 C   0  0  0  0  0  0  0  0  0  0  0  0
   11.6913    3.7500    0.0000 C   0  0  0  0  0  0  0  0  0  0  0  0
    7.7942    3.0000    0.0000 C   0  0  0  0  0  0  0  0  0  0  0  0
    6.4952    2.2500    0.0000 O   0  0  0  0  0  0  0  0  0  0  0  0
    9.0933    2.2500    0.0000 O   0  0  0  0  0  0  0  0  0  0  0  0
  2  1  1  1
  2  3  1  0
  3  4  1  0
  3  5  1  0
  2  6  1  0
  6  7  2  0
  6  8  1  0
  9  8  1  1
  9 10  1  0
 10 11  1  0
 10 12  1  6
  9 13  1  0
 13 14  2  0
 13 15  1  0
 15 16  1  0
 16 17  1  1
 17 18  1  0
 18 19  3  0
 16 20  1  0
 20 21  2  0
 20 22  1  0
M  END
$$$$

     RDKit          2D

 24 23  0  0  0  0  0  0  0  0999 V2000
    1.2990    0.7500    0.0000 N   0  0  0  0  0  0  0  0  0  0  0  0
    0.0000    0.0000    0.0000 C   0  0  0  0  0  0  0  0  0  0  0  0
    2.5981   -0.0000    0.0000 C   0  0  0  0  0  0  0  0  0  0  0  0
    3.8971    0.7500    0.0000 C   0  0  0  0  0  0  0  0  0  0  0  0
    5.1962   -0.0000    0.0000 C   0  0  0  0  0  0  0  0  0  0  0  0
    6.4952    0.7500    0.0000 C   0  0  0  0  0  0  0  0  0  0  0  0
    5.1962   -1.5000    0.0000 C   0  0  0  0  0  0  0  0  0  0  0  0
    2.5981   -1.5000    0.0000 C   0  0  0  0  0  0  0  0  0  0  0  0
    1.2990   -2.2500    0.0000 O   0  0  0  0  0  0  0  0  0  0  0  0
    3.8971   -2.2500    0.0000 N   0  0  0  0  0  0  0  0  0  0  0  0
    3.8971   -3.7500    0.0000 C   0  0  0  0  0  0  0  0  0  0  0  0
    5.1962   -4.5000    0.0000 C   0  0  0  0  0  0  0  0  0  0  0  0
    6.4952   -3.7500    0.0000 O   0  0  0  0  0  0  0  0  0  0  0  0
    5.1962   -6.0000    0.0000 C   0  0  0  0  0  0  0  0  0  0  0  0
    2.5981   -4.5000    0.0000 C   0  0  0  0  0  0  0  0  0  0  0  0
    1.2990   -3.7500    0.0000 O   0  0  0  0  0  0  0  0  0  0  0  0
    2.5981   -6.0000    0.0000 N   0  0  0  0  0  0  0  0  0  0  0  0
    1.2990   -6.7500    0.0000 C   0  0  0  0  0  0  0  0  0  0  0  0
    1.2990   -8.2500    0.0000 C   0  0  0  0  0  0  0  0  0  0  0  0
    0.0000   -9.0000    0.0000 C   0  0  0  0  0  0  0  0  0  0  0  0
   -1.2990   -9.7500    0.0000 C   0  0  0  0  0  0  0  0  0  0  0  0
    0.0000   -6.0000    0.0000 C   0  0  0  0  0  0  0  0  0  0  0  0
    0.0000   -4.5000    0.0000 O   0  0  0  0  0  0  0  0  0  0  0  0
   -1.2990   -6.7500    0.0000 O   0  0  0  0  0  0  0  0  0  0  0  0
  1  2  1  0
  1  3  1  0
  3  4  1  1
  4  5  1  0
  5  6  1  0
  5  7  1  0
  3  8  1  0
  8  9  2  0
  8 10  1  0
 11 10  1  1
 11 12  1  0
 12 13  1  0
 12 14  1  6
 11 15  1  0
 15 16  2  0
 15 17  1  0
 17 18  1  0
 18 19  1  1
 19 20  1  0
 20 21  3  0
 18 22  1  0
 22 23  2  0
 22 24  1  0
M  END
$$$$

     RDKit          2D

 24 23  0  0  0  0  0  0  0  0999 V2000
    1.2990    0.7500    0.0000 N   0  0  0  0  0  0  0  0  0  0  0  0
    0.0000    0.0000    0.0000 C   0  0  0  0  0  0  0  0  0  0  0  0
    2.5981   -0.0000    0.0000 C   0  0  0  0  0  0  0  0  0  0  0  0
    3.8971    0.7500    0.0000 C   0  0  0  0  0  0  0  0  0  0  0  0
    5.1962   -0.0000    0.0000 C   0  0  0  0  0  0  0  0  0  0  0  0
    6.4952    0.7500    0.0000 C   0  0  0  0  0  0  0  0  0  0  0  0
    5.1962   -1.5000    0.0000 C   0  0  0  0  0  0  0  0  0  0  0  0
    2.5981   -1.5000    0.0000 C   0  0  0  0  0  0  0  0  0  0  0  0
    1.2990   -2.2500    0.0000 O   0  0  0  0  0  0  0  0  0  0  0  0
    3.8971   -2.2500    0.0000 N   0  0  0  0  0  0  0  0  0  0  0  0
    3.8971   -3.7500    0.0000 C   0  0  0  0  0  0  0  0  0  0  0  0
    5.1962   -4.5000    0.0000 C   0  0  0  0  0  0  0  0  0  0  0  0
    6.4952   -3.7500    0.0000 O   0  0  0  0  0  0  0  0  0  0  0  0
    5.1962   -6.0000    0.0000 C   0  0  0  0  0  0  0  0  0  0  0  0
    2.5981   -4.5000    0.0000 C   0  0  0  0  0  0  0  0  0  0  0  0
    1.2990   -3.7500    0.0000 O   0  0  0  0  0  0  0  0  0  0  0  0
    2.5981   -6.0000    0.0000 N   0  0  0  0  0  0  0  0  0  0  0  0
    1.2990   -6.7500    0.0000 C   0  0  0  0  0  0  0  0  0  0  0  0
    1.2990   -8.2500    0.0000 C   0  0  0  0  0  0  0  0  0  0  0  0
    0.0000   -9.0000    0.0000 C   0  0  0  0  0  0  0  0  0  0  0  0
   -1.2990   -9.7500    0.0000 C   0  0  0  0  0  0  0  0  0  0  0  0
    0.0000   -6.0000    0.0000 C   0  0  0  0  0  0  0  0  0  0  0  0
    0.0000   -4.5000    0.0000 O   0  0  0  0  0  0  0  0  0  0  0  0
   -1.2990   -6.7500    0.0000 O   0  0  0  0  0  0  0  0  0  0  0  0
  1  2  1  0
  1  3  1  0
  3  4  1  6
  4  5  1  0
  5  6  1  0
  5  7  1  0
  3  8  1  0
  8  9  2  0
  8 10  1  0
 11 10  1  1
 11 12  1  0
 12 13  1  0
 12 14  1  6
 11 15  1  0
 15 16  2  0
 15 17  1  0
 17 18  1  0
 18 19  1  1
 19 20  1  0
 20 21  3  0
 18 22  1  0
 22 23  2  0
 22 24  1  0
M  END
$$$$

     RDKit          2D

 26 26  0  0  0  0  0  0  0  0999 V2000
    3.0000   -2.5981    0.0000 N   0  0  0  0  0  0  0  0  0  0  0  0
    3.7500   -1.2990    0.0000 C   0  0  0  0  0  0  0  0  0  0  0  0
    3.0000    0.0000    0.0000 C   0  0  0  0  0  0  0  0  0  0  0  0
    1.5000    0.0000    0.0000 C   0  0  0  0  0  0  0  0  0  0  0  0
    0.7500   -1.2990    0.0000 C   0  0  0  0  0  0  0  0  0  0  0  0
   -0.7500   -1.2990    0.0000 C   0  0  0  0  0  0  0  0  0  0  0  0
   -1.5000    0.0000    0.0000 C   0  0  0  0  0  0  0  0  0  0  0  0
   -0.7500    1.2990    0.0000 C   0  0  0  0  0  0  0  0  0  0  0  0
    0.7500    1.2990    0.0000 C   0  0  0  0  0  0  0  0  0  0  0  0
    5.2500   -1.2990    0.0000 C   0  0  0  0  0  0  0  0  0  0  0  0
    6.0000    0.0000    0.0000 O   0  0  0  0  0  0  0  0  0  0  0  0
    6.0000   -2.5981    0.0000 N   0  0  0  0  0  0  0  0  0  0  0  0
    7.5000   -2.5981    0.0000 C   0  0  0  0  0  0  0  0  0  0  0  0
    8.2500   -3.8971    0.0000 C   0  0  0  0  0  0  0  0  0  0  0  0
    7.5000   -5.1962    0.0000 O   0  0  0  0  0  0  0  0  0  0  0  0
    9.7500   -3.8971    0.0000 C   0  0  0  0  0  0  0  0  0  0  0  0
    8.2500   -1.2990    0.0000 C   0  0  0  0  0  0  0  0  0  0  0  0
    7.5000    0.0000    0.0000 O   0  0  0  0  0  0  0  0  0  0  0  0
    9.7500   -1.2990    0.0000 N   0  0  0  0  0  0  0  0  0  0  0  0
   10.5000    0.0000    0.0000 C   0  0  0  0  0  0  0  0  0  0  0  0
   12.0000    0.0000    0.0000 C   0  0  0  0  0  0  0  0  0  0  0  0
   12.7500    1.2990    0.0000 C   0  0  0  0  0  0  0  0  0  0  0  0
   13.5000    2.5981    0.0000 C   0  0  0  0  0  0  0  0  0  0  0  0
    9.7500    1.2990    0.0000 C   0  0  0  0  0  0  0  0  0  0  0  0
    8.2500    1.2990    0.0000 O   0  0  0  0  0  0  0  0  0  0  0  0
   10.5000    2.5981    0.0000 O   0  0  0  0  0  0  0  0  0  0  0  0
  2  1  1  1
  2  3  1  0
  3  4  1  0
  4  5  2  0
  5  6  1  0
  6  7  2  0
  7  8  1  0
  8  9  2  0
  2 10  1  0
 10 11  2  0
 10 12  1  0
 13 12  1  6
 13 14  1  0
 14 15  1  0
 14 16  1  1
 13 17  1  0
 17 18  2  0
 17 19  1  0
 19 20  1  0
 20 21  1  6
 21 22  1  0
 22 23  3  0
 20 24  1  0
 24 25  2  0
 24 26  1  0
  9  4  1  0
M  END
$$$$

     RDKit          2D

 26 26  0  0  0  0  0  0  0  0999 V2000
    3.0000   -2.5981    0.0000 N   0  0  0  0  0  0  0  0  0  0  0  0
    3.7500   -1.2990    0.0000 C   0  0  0  0  0  0  0  0  0  0  0  0
    3.0000    0.0000    0.0000 C   0  0  0  0  0  0  0  0  0  0  0  0
    1.5000    0.0000    0.0000 C   0  0  0  0  0  0  0  0  0  0  0  0
    0.7500   -1.2990    0.0000 C   0  0  0  0  0  0  0  0  0  0  0  0
   -0.7500   -1.2990    0.0000 C   0  0  0  0  0  0  0  0  0  0  0  0
   -1.5000    0.0000    0.0000 C   0  0  0  0  0  0  0  0  0  0  0  0
   -0.7500    1.2990    0.0000 C   0  0  0  0  0  0  0  0  0  0  0  0
    0.7500    1.2990    0.0000 C   0  0  0  0  0  0  0  0  0  0  0  0
    5.2500   -1.2990    0.0000 C   0  0  0  0  0  0  0  0  0  0  0  0
    6.0000    0.0000    0.0000 O   0  0  0  0  0  0  0  0  0  0  0  0
    6.0000   -2.5981    0.0000 N   0  0  0  0  0  0  0  0  0  0  0  0
    7.5000   -2.5981    0.0000 C   0  0  0  0  0  0  0  0  0  0  0  0
    8.2500   -3.8971    0.0000 C   0  0  0  0  0  0  0  0  0  0  0  0
    7.5000   -5.1962    0.0000 O   0  0  0  0  0  0  0  0  0  0  0  0
    9.7500   -3.8971    0.0000 C   0  0  0  0  0  0  0  0  0  0  0  0
    8.2500   -1.2990    0.0000 C   0  0  0  0  0  0  0  0  0  0  0  0
    7.5000    0.0000    0.0000 O   0  0  0  0  0  0  0  0  0  0  0  0
    9.7500   -1.2990    0.0000 N   0  0  0  0  0  0  0  0  0  0  0  0
   10.5000    0.0000    0.0000 C   0  0  0  0  0  0  0  0  0  0  0  0
   12.0000    0.0000    0.0000 C   0  0  0  0  0  0  0  0  0  0  0  0
   12.7500    1.2990    0.0000 C   0  0  0  0  0  0  0  0  0  0  0  0
   13.5000    2.5981    0.0000 C   0  0  0  0  0  0  0  0  0  0  0  0
    9.7500    1.2990    0.0000 C   0  0  0  0  0  0  0  0  0  0  0  0
    8.2500    1.2990    0.0000 O   0  0  0  0  0  0  0  0  0  0  0  0
   10.5000    2.5981    0.0000 O   0  0  0  0  0  0  0  0  0  0  0  0
  2  1  1  6
  2  3  1  0
  3  4  1  0
  4  5  2  0
  5  6  1  0
  6  7  2  0
  7  8  1  0
  8  9  2  0
  2 10  1  0
 10 11  2  0
 10 12  1  0
 13 12  1  6
 13 14  1  0
 14 15  1  0
 14 16  1  1
 13 17  1  0
 17 18  2  0
 17 19  1  0
 19 20  1  0
 20 21  1  6
 21 22  1  0
 22 23  3  0
 20 24  1  0
 24 25  2  0
 24 26  1  0
  9  4  1  0
M  END
$$$$

     RDKit          2D

 27 27  0  0  0  0  0  0  0  0999 V2000
    3.0000   -2.5981    0.0000 N   0  0  0  0  0  0  0  0  0  0  0  0
    3.7500   -3.8971    0.0000 C   0  0  0  0  0  0  0  0  0  0  0  0
    3.7500   -1.2990    0.0000 C   0  0  0  0  0  0  0  0  0  0  0  0
    3.0000    0.0000    0.0000 C   0  0  0  0  0  0  0  0  0  0  0  0
    1.5000    0.0000    0.0000 C   0  0  0  0  0  0  0  0  0  0  0  0
    0.7500   -1.2990    0.0000 C   0  0  0  0  0  0  0  0  0  0  0  0
   -0.7500   -1.2990    0.0000 C   0  0  0  0  0  0  0  0  0  0  0  0
   -1.5000    0.0000    0.0000 C   0  0  0  0  0  0  0  0  0  0  0  0
   -0.7500    1.2990    0.0000 C   0  0  0  0  0  0  0  0  0  0  0  0
    0.7500    1.2990    0.0000 C   0  0  0  0  0  0  0  0  0  0  0  0
    5.2500   -1.2990    0.0000 C   0  0  0  0  0  0  0  0  0  0  0  0
    6.0000    0.0000    0.0000 O   0  0  0  0  0  0  0  0  0  0  0  0
    6.0000   -2.5981    0.0000 N   0  0  0  0  0  0  0  0  0  0  0  0
    7.5000   -2.5981    0.0000 C   0  0  0  0  0  0  0  0  0  0  0  0
    8.2500   -3.8971    0.0000 C   0  0  0  0  0  0  0  0  0  0  0  0
    7.5000   -5.1962    0.0000 O   0  0  0  0  0  0  0  0  0  0  0  0
    9.7500   -3.8971    0.0000 C   0  0  0  0  0  0  0  0  0  0  0  0
    8.2500   -1.2990    0.0000 C   0  0  0  0  0  0  0  0  0  0  0  0
    7.5000    0.0000    0.0000 O   0  0  0  0  0  0  0  0  0  0  0  0
    9.7500   -1.2990    0.0000 N   0  0  0  0  0  0  0  0  0  0  0  0
   10.5000    0.0000    0.0000 C   0  0  0  0  0  0  0  0  0  0  0  0
   12.0000    0.0000    0.0000 C   0  0  0  0  0  0  0  0  0  0  0  0
   12.7500    1.2990    0.0000 C   0  0  0  0  0  0  0  0  0  0  0  0
   13.5000    2.5981    0.0000 C   0  0  0  0  0  0  0  0  0  0  0  0
    9.7500    1.2990    0.0000 C   0  0  0  0  0  0  0  0  0  0  0  0
    8.2500    1.2990    0.0000 O   0  0  0  0  0  0  0  0  0  0  0  0
   10.5000    2.5981    0.0000 O   0  0  0  0  0  0  0  0  0  0  0  0
  1  2  1  0
  1  3  1  0
  3  4  1  1
  4  5  1  0
  5  6  2  0
  6  7  1  0
  7  8  2  0
  8  9  1  0
  9 10  2  0
  3 11  1  0
 11 12  2  0
 11 13  1  0
 14 13  1  6
 14 15  1  0
 15 16  1  0
 15 17  1  1
 14 18  1  0
 18 19  2  0
 18 20  1  0
 20 21  1  0
 21 22  1  6
 22 23  1  0
 23 24  3  0
 21 25  1  0
 25 26  2  0
 25 27  1  0
 10  5  1  0
M  END
$$$$

     RDKit          2D

 27 27  0  0  0  0  0  0  0  0999 V2000
    3.0000   -2.5981    0.0000 N   0  0  0  0  0  0  0  0  0  0  0  0
    3.7500   -3.8971    0.0000 C   0  0  0  0  0  0  0  0  0  0  0  0
    3.7500   -1.2990    0.0000 C   0  0  0  0  0  0  0  0  0  0  0  0
    3.0000    0.0000    0.0000 C   0  0  0  0  0  0  0  0  0  0  0  0
    1.5000    0.0000    0.0000 C   0  0  0  0  0  0  0  0  0  0  0  0
    0.7500   -1.2990    0.0000 C   0  0  0  0  0  0  0  0  0  0  0  0
   -0.7500   -1.2990    0.0000 C   0  0  0  0  0  0  0  0  0  0  0  0
   -1.5000    0.0000    0.0000 C   0  0  0  0  0  0  0  0  0  0  0  0
   -0.7500    1.2990    0.0000 C   0  0  0  0  0  0  0  0  0  0  0  0
    0.7500    1.2990    0.0000 C   0  0  0  0  0  0  0  0  0  0  0  0
    5.2500   -1.2990    0.0000 C   0  0  0  0  0  0  0  0  0  0  0  0
    6.0000    0.0000    0.0000 O   0  0  0  0  0  0  0  0  0  0  0  0
    6.0000   -2.5981    0.0000 N   0  0  0  0  0  0  0  0  0  0  0  0
    7.5000   -2.5981    0.0000 C   0  0  0  0  0  0  0  0  0  0  0  0
    8.2500   -3.8971    0.0000 C   0  0  0  0  0  0  0  0  0  0  0  0
    7.5000   -5.1962    0.0000 O   0  0  0  0  0  0  0  0  0  0  0  0
    9.7500   -3.8971    0.0000 C   0  0  0  0  0  0  0  0  0  0  0  0
    8.2500   -1.2990    0.0000 C   0  0  0  0  0  0  0  0  0  0  0  0
    7.5000    0.0000    0.0000 O   0  0  0  0  0  0  0  0  0  0  0  0
    9.7500   -1.2990    0.0000 N   0  0  0  0  0  0  0  0  0  0  0  0
   10.5000    0.0000    0.0000 C   0  0  0  0  0  0  0  0  0  0  0  0
   12.0000    0.0000    0.0000 C   0  0  0  0  0  0  0  0  0  0  0  0
   12.7500    1.2990    0.0000 C   0  0  0  0  0  0  0  0  0  0  0  0
   13.5000    2.5981    0.0000 C   0  0  0  0  0  0  0  0  0  0  0  0
    9.7500    1.2990    0.0000 C   0  0  0  0  0  0  0  0  0  0  0  0
    8.2500    1.2990    0.0000 O   0  0  0  0  0  0  0  0  0  0  0  0
   10.5000    2.5981    0.0000 O   0  0  0  0  0  0  0  0  0  0  0  0
  1  2  1  0
  1  3  1  0
  3  4  1  6
  4  5  1  0
  5  6  2  0
  6  7  1  0
  7  8  2  0
  8  9  1  0
  9 10  2  0
  3 11  1  0
 11 12  2  0
 11 13  1  0
 14 13  1  6
 14 15  1  0
 15 16  1  0
 15 17  1  1
 14 18  1  0
 18 19  2  0
 18 20  1  0
 20 21  1  0
 21 22  1  6
 22 23  1  0
 23 24  3  0
 21 25  1  0
 25 26  2  0
 25 27  1  0
 10  5  1  0
M  END
$$$$

     RDKit          2D

 22 21  0  0  0  0  0  0  0  0999 V2000
    2.5981   -1.5000    0.0000 N   0  0  0  0  0  0  0  0  0  0  0  0
    2.5981   -0.0000    0.0000 C   0  0  0  0  0  0  0  0  0  0  0  0
    1.2990    0.7500    0.0000 C   0  0  0  0  0  0  0  0  0  0  0  0
    1.2990    2.2500    0.0000 O   0  0  0  0  0  0  0  0  0  0  0  0
    0.0000    0.0000    0.0000 C   0  0  0  0  0  0  0  0  0  0  0  0
    3.8971    0.7500    0.0000 C   0  0  0  0  0  0  0  0  0  0  0  0
    3.8971    2.2500    0.0000 O   0  0  0  0  0  0  0  0  0  0  0  0
    5.1962   -0.0000    0.0000 N   0  0  0  0  0  0  0  0  0  0  0  0
    6.4952    0.7500    0.0000 C   0  0  0  0  0  0  0  0  0  0  0  0
    7.7942   -0.0000    0.0000 C   0  0  0  0  0  0  0  0  0  0  0  0
    7.7942   -1.5000    0.0000 O   0  0  0  0  0  0  0  0  0  0  0  0
    9.0933    0.7500    0.0000 C   0  0  0  0  0  0  0  0  0  0  0  0
    6.4952    2.2500    0.0000 C   0  0  0  0  0  0  0  0  0  0  0  0
    5.1962    3.0000    0.0000 O   0  0  0  0  0  0  0  0  0  0  0  0
    7.7942    3.0000    0.0000 N   0  0  0  0  0  0  0  0  0  0  0  0
    7.7942    4.5000    0.0000 C   0  0  0  0  0  0  0  0  0  0  0  0
    9.0933    5.2500    0.0000 C   0  0  0  0  0  0  0  0  0  0  0  0
    9.0933    6.7500    0.0000 C   0  0  0  0  0  0  0  0  0  0  0  0
    9.0933    8.2500    0.0000 C   0  0  0  0  0  0  0  0  0  0  0  0
    6.4952    5.2500    0.0000 C   0  0  0  0  0  0  0  0  0  0  0  0
    5.1962    4.5000    0.0000 O   0  0  0  0  0  0  0  0  0  0  0  0
    6.4952    6.7500    0.0000 O   0  0  0  0  0  0  0  0  0  0  0  0
  2  1  1  1
  2  3  1  0
  3  4  1  0
  3  5  1  1
  2  6  1  0
  6  7  2  0
  6  8  1  0
  9  8  1  6
  9 10  1  0
 10 11  1  0
 10 12  1  1
  9 13  1  0
 13 14  2  0
 13 15  1  0
 15 16  1  0
 16 17  1  6
 17 18  1  0
 18 19  3  0
 16 20  1  0
 20 21  2  0
 20 22  1  0
M  END
$$$$

     RDKit          2D

 22 21  0  0  0  0  0  0  0  0999 V2000
    2.5981   -1.5000    0.0000 N   0  0  0  0  0  0  0  0  0  0  0  0
    2.5981   -0.0000    0.0000 C   0  0  0  0  0  0  0  0  0  0  0  0
    1.2990    0.7500    0.0000 C   0  0  0  0  0  0  0  0  0  0  0  0
    1.2990    2.2500    0.0000 O   0  0  0  0  0  0  0  0  0  0  0  0
    0.0000    0.0000    0.0000 C   0  0  0  0  0  0  0  0  0  0  0  0
    3.8971    0.7500    0.0000 C   0  0  0  0  0  0  0  0  0  0  0  0
    3.8971    2.2500    0.0000 O   0  0  0  0  0  0  0  0  0  0  0  0
    5.1962   -0.0000    0.0000 N   0  0  0  0  0  0  0  0  0  0  0  0
    6.4952    0.7500    0.0000 C   0  0  0  0  0  0  0  0  0  0  0  0
    7.7942   -0.0000    0.0000 C   0  0  0  0  0  0  0  0  0  0  0  0
    7.7942   -1.5000    0.0000 O   0  0  0  0  0  0  0  0  0  0  0  0
    9.0933    0.7500    0.0000 C   0  0  0  0  0  0  0  0  0  0  0  0
    6.4952    2.2500    0.0000 C   0  0  0  0  0  0  0  0  0  0  0  0
    5.1962    3.0000    0.0000 O   0  0  0  0  0  0  0  0  0  0  0  0
    7.7942    3.0000    0.0000 N   0  0  0  0  0  0  0  0  0  0  0  0
    7.7942    4.5000    0.0000 C   0  0  0  0  0  0  0  0  0  0  0  0
    9.0933    5.2500    0.0000 C   0  0  0  0  0  0  0  0  0  0  0  0
    9.0933    6.7500    0.0000 C   0  0  0  0  0  0  0  0  0  0  0  0
    9.0933    8.2500    0.0000 C   0  0  0  0  0  0  0  0  0  0  0  0
    6.4952    5.2500    0.0000 C   0  0  0  0  0  0  0  0  0  0  0  0
    5.1962    4.5000    0.0000 O   0  0  0  0  0  0  0  0  0  0  0  0
    6.4952    6.7500    0.0000 O   0  0  0  0  0  0  0  0  0  0  0  0
  2  1  1  6
  2  3  1  0
  3  4  1  0
  3  5  1  1
  2  6  1  0
  6  7  2  0
  6  8  1  0
  9  8  1  6
  9 10  1  0
 10 11  1  0
 10 12  1  1
  9 13  1  0
 13 14  2  0
 13 15  1  0
 15 16  1  0
 16 17  1  6
 17 18  1  0
 18 19  3  0
 16 20  1  0
 20 21  2  0
 20 22  1  0
M  END
$$$$

     RDKit          2D

 23 22  0  0  0  0  0  0  0  0999 V2000
    1.2990    0.7500    0.0000 N   0  0  0  0  0  0  0  0  0  0  0  0
    0.0000    0.0000    0.0000 C   0  0  0  0  0  0  0  0  0  0  0  0
    2.5981   -0.0000    0.0000 C   0  0  0  0  0  0  0  0  0  0  0  0
    3.8971    0.7500    0.0000 C   0  0  0  0  0  0  0  0  0  0  0  0
    3.8971    2.2500    0.0000 O   0  0  0  0  0  0  0  0  0  0  0  0
    5.1962   -0.0000    0.0000 C   0  0  0  0  0  0  0  0  0  0  0  0
    2.5981   -1.5000    0.0000 C   0  0  0  0  0  0  0  0  0  0  0  0
    1.2990   -2.2500    0.0000 O   0  0  0  0  0  0  0  0  0  0  0  0
    3.8971   -2.2500    0.0000 N   0  0  0  0  0  0  0  0  0  0  0  0
    3.8971   -3.7500    0.0000 C   0  0  0  0  0  0  0  0  0  0  0  0
    5.1962   -4.5000    0.0000 C   0  0  0  0  0  0  0  0  0  0  0  0
    6.4952   -3.7500    0.0000 O   0  0  0  0  0  0  0  0  0  0  0  0
    5.1962   -6.0000    0.0000 C   0  0  0  0  0  0  0  0  0  0  0  0
    2.5981   -4.5000    0.0000 C   0  0  0  0  0  0  0  0  0  0  0  0
    1.2990   -3.7500    0.0000 O   0  0  0  0  0  0  0  0  0  0  0  0
    2.5981   -6.0000    0.0000 N   0  0  0  0  0  0  0  0  0  0  0  0
    1.2990   -6.7500    0.0000 C   0  0  0  0  0  0  0  0  0  0  0  0
    1.2990   -8.2500    0.0000 C   0  0  0  0  0  0  0  0  0  0  0  0
    0.0000   -9.0000    0.0000 C   0  0  0  0  0  0  0  0  0  0  0  0
   -1.2990   -9.7500    0.0000 C   0  0  0  0  0  0  0  0  0  0  0  0
    0.0000   -6.0000    0.0000 C   0  0  0  0  0  0  0  0  0  0  0  0
    0.0000   -4.5000    0.0000 O   0  0  0  0  0  0  0  0  0  0  0  0
   -1.2990   -6.7500    0.0000 O   0  0  0  0  0  0  0  0  0  0  0  0
  1  2  1  0
  3  1  1  1
  3  4  1  0
  4  5  1  0
  4  6  1  6
  3  7  1  0
  7  8  2  0
  7  9  1  0
 10  9  1  1
 10 11  1  0
 11 12  1  0
 11 13  1  6
 10 14  1  0
 14 15  2  0
 14 16  1  0
 16 17  1  0
 17 18  1  1
 18 19  1  0
 19 20  3  0
 17 21  1  0
 21 22  2  0
 21 23  1  0
M  END
$$$$

     RDKit          2D

 23 22  0  0  0  0  0  0  0  0999 V2000
    1.2990    0.7500    0.0000 N   0  0  0  0  0  0  0  0  0  0  0  0
    0.0000    0.0000    0.0000 C   0  0  0  0  0  0  0  0  0  0  0  0
    2.5981   -0.0000    0.0000 C   0  0  0  0  0  0  0  0  0  0  0  0
    3.8971    0.7500    0.0000 C   0  0  0  0  0  0  0  0  0  0  0  0
    3.8971    2.2500    0.0000 O   0  0  0  0  0  0  0  0  0  0  0  0
    5.1962   -0.0000    0.0000 C   0  0  0  0  0  0  0  0  0  0  0  0
    2.5981   -1.5000    0.0000 C   0  0  0  0  0  0  0  0  0  0  0  0
    1.2990   -2.2500    0.0000 O   0  0  0  0  0  0  0  0  0  0  0  0
    3.8971   -2.2500    0.0000 N   0  0  0  0  0  0  0  0  0  0  0  0
    3.8971   -3.7500    0.0000 C   0  0  0  0  0  0  0  0  0  0  0  0
    5.1962   -4.5000    0.0000 C   0  0  0  0  0  0  0  0  0  0  0  0
    6.4952   -3.7500    0.0000 O   0  0  0  0  0  0  0  0  0  0  0  0
    5.1962   -6.0000    0.0000 C   0  0  0  0  0  0  0  0  0  0  0  0
    2.5981   -4.5000    0.0000 C   0  0  0  0  0  0  0  0  0  0  0  0
    1.2990   -3.7500    0.0000 O   0  0  0  0  0  0  0  0  0  0  0  0
    2.5981   -6.0000    0.0000 N   0  0  0  0  0  0  0  0  0  0  0  0
    1.2990   -6.7500    0.0000 C   0  0  0  0  0  0  0  0  0  0  0  0
    1.2990   -8.2500    0.0000 C   0  0  0  0  0  0  0  0  0  0  0  0
    0.0000   -9.0000    0.0000 C   0  0  0  0  0  0  0  0  0  0  0  0
   -1.2990   -9.7500    0.0000 C   0  0  0  0  0  0  0  0  0  0  0  0
    0.0000   -6.0000    0.0000 C   0  0  0  0  0  0  0  0  0  0  0  0
    0.0000   -4.5000    0.0000 O   0  0  0  0  0  0  0  0  0  0  0  0
   -1.2990   -6.7500    0.0000 O   0  0  0  0  0  0  0  0  0  0  0  0
  1  2  1  0
  3  1  1  6
  3  4  1  0
  4  5  1  0
  4  6  1  6
  3  7  1  0
  7  8  2  0
  7  9  1  0
 10  9  1  1
 10 11  1  0
 11 12  1  0
 11 13  1  6
 10 14  1  0
 14 15  2  0
 14 16  1  0
 16 17  1  0
 17 18  1  1
 18 19  1  0
 19 20  3  0
 17 21  1  0
 21 22  2  0
 21 23  1  0
M  END
$$$$

     RDKit          2D

 23 22  0  0  0  0  0  0  0  0999 V2000
    2.5981    3.0000    0.0000 N   0  0  0  0  0  0  0  0  0  0  0  0
    1.2990    2.2500    0.0000 C   0  0  0  0  0  0  0  0  0  0  0  0
    1.2990    0.7500    0.0000 C   0  0  0  0  0  0  0  0  0  0  0  0
    0.0000    0.0000    0.0000 C   0  0  0  0  0  0  0  0  0  0  0  0
    2.5981   -0.0000    0.0000 C   0  0  0  0  0  0  0  0  0  0  0  0
    2.5981    4.5000    0.0000 C   0  0  0  0  0  0  0  0  0  0  0  0
    3.8971    5.2500    0.0000 C   0  0  0  0  0  0  0  0  0  0  0  0
    5.1962    4.5000    0.0000 O   0  0  0  0  0  0  0  0  0  0  0  0
    3.8971    6.7500    0.0000 N   0  0  0  0  0  0  0  0  0  0  0  0
    5.1962    7.5000    0.0000 C   0  0  0  0  0  0  0  0  0  0  0  0
    5.1962    9.0000    0.0000 C   0  0  0  0  0  0  0  0  0  0  0  0
    3.8971    9.7500    0.0000 O   0  0  0  0  0  0  0  0  0  0  0  0
    6.4952    9.7500    0.0000 C   0  0  0  0  0  0  0  0  0  0  0  0
    6.4952    6.7500    0.0000 C   0  0  0  0  0  0  0  0  0  0  0  0
    6.4952    5.2500    0.0000 O   0  0  0  0  0  0  0  0  0  0  0  0
    7.7942    7.5000    0.0000 N   0  0  0  0  0  0  0  0  0  0  0  0
    9.0933    6.7500    0.0000 C   0  0  0  0  0  0  0  0  0  0  0  0
   10.3923    7.5000    0.0000 C   0  0  0  0  0  0  0  0  0  0  0  0
   11.6913    6.7500    0.0000 C   0  0  0  0  0  0  0  0  0  0  0  0
   12.9904    6.0000    0.0000 C   0  0  0  0  0  0  0  0  0  0  0  0
    9.0933    5.2500    0.0000 C   0  0  0  0  0  0  0  0  0  0  0  0
    7.7942    4.5000    0.0000 O   0  0  0  0  0  0  0  0  0  0  0  0
   10.3923    4.5000    0.0000 O   0  0  0  0  0  0  0  0  0  0  0  0
  1  2  1  0
  2  3  1  0
  3  4  1  0
  3  5  1  0
  1  6  1  0
  6  7  1  0
  7  8  2  0
  7  9  1  0
 10  9  1  1
 10 11  1  0
 11 12  1  0
 11 13  1  6
 10 14  1  0
 14 15  2  0
 14 16  1  0
 16 17  1  0
 17 18  1  1
 18 19  1  0
 19 20  3  0
 17 21  1  0
 21 22  2  0
 21 23  1  0
M  END
$$$$

     RDKit          2D

 26 25  0  0  0  0  0  0  0  0999 V2000
    3.8971    6.7500    0.0000 N   0  0  0  0  0  0  0  0  0  0  0  0
    3.8971    5.2500    0.0000 C   0  0  0  0  0  0  0  0  0  0  0  0
    2.5981    4.5000    0.0000 C   0  0  0  0  0  0  0  0  0  0  0  0
    2.5981    3.0000    0.0000 C   0  0  0  0  0  0  0  0  0  0  0  0
    1.2990    2.2500    0.0000 O   0  0  0  0  0  0  0  0  0  0  0  0
    1.2990    0.7500    0.0000 C   0  0  0  0  0  0  0  0  0  0  0  0
    0.0000    0.0000    0.0000 C   0  0  0  0  0  0  0  0  0  0  0  0
    2.5981   -0.0000    0.0000 C   0  0  0  0  0  0  0  0  0  0  0  0
    5.1962    7.5000    0.0000 C   0  0  0  0  0  0  0  0  0  0  0  0
    5.1962    9.0000    0.0000 C   0  0  0  0  0  0  0  0  0  0  0  0
    3.8971    9.7500    0.0000 O   0  0  0  0  0  0  0  0  0  0  0  0
    6.4952    9.7500    0.0000 N   0  0  0  0  0  0  0  0  0  0  0  0
    6.4952   11.2500    0.0000 C   0  0  0  0  0  0  0  0  0  0  0  0
    7.7942   12.0000    0.0000 C   0  0  0  0  0  0  0  0  0  0  0  0
    9.0933   11.2500    0.0000 O   0  0  0  0  0  0  0  0  0  0  0  0
    7.7942   13.5000    0.0000 C   0  0  0  0  0  0  0  0  0  0  0  0
    5.1962   12.0000    0.0000 C   0  0  0  0  0  0  0  0  0  0  0  0
    3.8971   11.2500    0.0000 O   0  0  0  0  0  0  0  0  0  0  0  0
    5.1962   13.5000    0.0000 N   0  0  0  0  0  0  0  0  0  0  0  0
    3.8971   14.2500    0.0000 C   0  0  0  0  0  0  0  0  0  0  0  0
    3.8971   15.7500    0.0000 C   0  0  0  0  0  0  0  0  0  0  0  0
    2.5981   16.5000    0.0000 C   0  0  0  0  0  0  0  0  0  0  0  0
    1.2990   17.2500    0.0000 C   0  0  0  0  0  0  0  0  0  0  0  0
    2.5981   13.5000    0.0000 C   0  0  0  0  0  0  0  0  0  0  0  0
    2.5981   12.0000    0.0000 O   0  0  0  0  0  0  0  0  0  0  0  0
    1.2990   14.2500    0.0000 O   0  0  0  0  0  0  0  0  0  0  0  0
  1  2  1  0
  2  3  1  0
  3  4  1  0
  4  5  1  0
  5  6  1  0
  6  7  1  0
  6  8  1  0
  1  9  1  0
  9 10  1  0
 10 11  2  0
 10 12  1  0
 13 12  1  6
 13 14  1  0
 14 15  1  0
 14 16  1  1
 13 17  1  0
 17 18  2  0
 17 19  1  0
 19 20  1  0
 20 21  1  6
 21 22  1  0
 22 23  3  0
 20 24  1  0
 24 25  2  0
 24 26  1  0
M  END
$$$$

     RDKit          2D

 28 28  0  0  0  0  0  0  0  0999 V2000
    6.0000   -2.5981    0.0000 N   0  0  0  0  0  0  0  0  0  0  0  0
    5.2500   -1.2990    0.0000 C   0  0  0  0  0  0  0  0  0  0  0  0
    3.7500   -1.2990    0.0000 C   0  0  0  0  0  0  0  0  0  0  0  0
    3.0000    0.0000    0.0000 O   0  0  0  0  0  0  0  0  0  0  0  0
    1.5000    0.0000    0.0000 C   0  0  0  0  0  0  0  0  0  0  0  0
    0.7500   -1.2990    0.0000 C   0  0  0  0  0  0  0  0  0  0  0  0
   -0.7500   -1.2990    0.0000 C   0  0  0  0  0  0  0  0  0  0  0  0
   -1.5000    0.0000    0.0000 C   0  0  0  0  0  0  0  0  0  0  0  0
   -0.7500    1.2990    0.0000 C   0  0  0  0  0  0  0  0  0  0  0  0
    0.7500    1.2990    0.0000 C   0  0  0  0  0  0  0  0  0  0  0  0
    7.5000   -2.5981    0.0000 C   0  0  0  0  0  0  0  0  0  0  0  0
    8.2500   -3.8971    0.0000 C   0  0  0  0  0  0  0  0  0  0  0  0
    7.5000   -5.1962    0.0000 O   0  0  0  0  0  0  0  0  0  0  0  0
    9.7500   -3.8971    0.0000 N   0  0  0  0  0  0  0  0  0  0  0  0
   10.5000   -5.1962    0.0000 C   0  0  0  0  0  0  0  0  0  0  0  0
   12.0000   -5.1962    0.0000 C   0  0  0  0  0  0  0  0  0  0  0  0
   12.7500   -3.8971    0.0000 O   0  0  0  0  0  0  0  0  0  0  0  0
   12.7500   -6.4952    0.0000 C   0  0  0  0  0  0  0  0  0  0  0  0
    9.7500   -6.4952    0.0000 C   0  0  0  0  0  0  0  0  0  0  0  0
    8.2500   -6.4952    0.0000 O   0  0  0  0  0  0  0  0  0  0  0  0
   10.5000   -7.7942    0.0000 N   0  0  0  0  0  0  0  0  0  0  0  0
    9.7500   -9.0933    0.0000 C   0  0  0  0  0  0  0  0  0  0  0  0
   10.5000  -10.3923    0.0000 C   0  0  0  0  0  0  0  0  0  0  0  0
    9.7500  -11.6913    0.0000 C   0  0  0  0  0  0  0  0  0  0  0  0
    9.0000  -12.9904    0.0000 C   0  0  0  0  0  0  0  0  0  0  0  0
    8.2500   -9.0933    0.0000 C   0  0  0  0  0  0  0  0  0  0  0  0
    7.5000   -7.7942    0.0000 O   0  0  0  0  0  0  0  0  0  0  0  0
    7.5000  -10.3923    0.0000 O   0  0  0  0  0  0  0  0  0  0  0  0
  1  2  1  0
  2  3  1  0
  3  4  1  0
  4  5  1  0
  5  6  2  0
  6  7  1  0
  7  8  2  0
  8  9  1  0
  9 10  2  0
  1 11  1  0
 11 12  1  0
 12 13  2  0
 12 14  1  0
 15 14  1  1
 15 16  1  0
 16 17  1  0
 16 18  1  6
 15 19  1  0
 19 20  2  0
 19 21  1  0
 21 22  1  0
 22 23  1  1
 23 24  1  0
 24 25  3  0
 22 26  1  0
 26 27  2  0
 26 28  1  0
 10  5  1  0
M  END
$$$$

     RDKit          2D

 31 31  0  0  0  0  0  0  0  0999 V2000
    5.2500   -1.2990    0.0000 N   0  0  0  0  0  0  0  0  0  0  0  0
    3.7500   -1.2990    0.0000 C   0  0  0  0  0  0  0  0  0  0  0  0
    3.0000    0.0000    0.0000 C   0  0  0  0  0  0  0  0  0  0  0  0
    1.5000    0.0000    0.0000 C   0  0  0  0  0  0  0  0  0  0  0  0
    0.7500   -1.2990    0.0000 C   0  0  0  0  0  0  0  0  0  0  0  0
   -0.7500   -1.2990    0.0000 C   0  0  0  0  0  0  0  0  0  0  0  0
   -1.5000    0.0000    0.0000 C   0  0  0  0  0  0  0  0  0  0  0  0
   -0.7500    1.2990    0.0000 C   0  0  0  0  0  0  0  0  0  0  0  0
   -1.5000    2.5981    0.0000 O   0  0  0  0  0  0  0  0  0  0  0  0
   -0.7500    3.8971    0.0000 C   0  0  0  0  0  0  0  0  0  0  0  0
    0.7500    1.2990    0.0000 C   0  0  0  0  0  0  0  0  0  0  0  0
   -3.0000    0.0000    0.0000 O   0  0  0  0  0  0  0  0  0  0  0  0
   -3.7500    1.2990    0.0000 C   0  0  0  0  0  0  0  0  0  0  0  0
    6.0000   -2.5981    0.0000 C   0  0  0  0  0  0  0  0  0  0  0  0
    7.5000   -2.5981    0.0000 C   0  0  0  0  0  0  0  0  0  0  0  0
    8.2500   -1.2990    0.0000 O   0  0  0  0  0  0  0  0  0  0  0  0
    8.2500   -3.8971    0.0000 N   0  0  0  0  0  0  0  0  0  0  0  0
    9.7500   -3.8971    0.0000 C   0  0  0  0  0  0  0  0  0  0  0  0
   10.5000   -5.1962    0.0000 C   0  0  0  0  0  0  0  0  0  0  0  0
    9.7500   -6.4952    0.0000 O   0  0  0  0  0  0  0  0  0  0  0  0
   12.0000   -5.1962    0.0000 C   0  0  0  0  0  0  0  0  0  0  0  0
   10.5000   -2.5981    0.0000 C   0  0  0  0  0  0  0  0  0  0  0  0
    9.7500   -1.2990    0.0000 O   0  0  0  0  0  0  0  0  0  0  0  0
   12.0000   -2.5981    0.0000 N   0  0  0  0  0  0  0  0  0  0  0  0
   12.7500   -1.2990    0.0000 C   0  0  0  0  0  0  0  0  0  0  0  0
   14.2500   -1.2990    0.0000 C   0  0  0  0  0  0  0  0  0  0  0  0
   15.0000    0.0000    0.0000 C   0  0  0  0  0  0  0  0  0  0  0  0
   15.7500    1.2990    0.0000 C   0  0  0  0  0  0  0  0  0  0  0  0
   12.0000    0.0000    0.0000 C   0  0  0  0  0  0  0  0  0  0  0  0
   10.5000    0.0000    0.0000 O   0  0  0  0  0  0  0  0  0  0  0  0
   12.7500    1.2990    0.0000 O   0  0  0  0  0  0  0  0  0  0  0  0
  1  2  1  0
  2  3  1  0
  3  4  1  0
  4  5  2  0
  5  6  1  0
  6  7  2  0
  7  8  1  0
  8  9  1  0
  9 10  1  0
  8 11  2  0
  7 12  1  0
 12 13  1  0
  1 14  1  0
 14 15  1  0
 15 16  2  0
 15 17  1  0
 18 17  1  6
 18 19  1  0
 19 20  1  0
 19 21  1  1
 18 22  1  0
 22 23  2  0
 22 24  1  0
 24 25  1  0
 25 26  1  6
 26 27  1  0
 27 28  3  0
 25 29  1  0
 29 30  2  0
 29 31  1  0
 11  4  1  0
M  END
$$$$

     RDKit          2D

 38 38  0  0  0  0  0  0  0  0999 V2000
    1.2760    5.1962    0.0000 N   0  0  0  0  0  0  0  0  0  0  0  0
    2.7760    5.1962    0.0000 C   0  0  0  0  0  0  0  0  0  0  0  0
    3.5260    6.4952    0.0000 C   0  0  0  0  0  0  0  0  0  0  0  0
    2.7760    7.7942    0.0000 C   0  0  0  0  0  0  0  0  0  0  0  0
    3.5260    9.0933    0.0000 C   0  0  0  0  0  0  0  0  0  0  0  0
    1.2760    7.7942    0.0000 C   0  0  0  0  0  0  0  0  0  0  0  0
    3.5260    3.8971    0.0000 C   0  0  0  0  0  0  0  0  0  0  0  0
    5.0260    3.8971    0.0000 O   0  0  0  0  0  0  0  0  0  0  0  0
    2.7760    2.5981    0.0000 N   0  0  0  0  0  0  0  0  0  0  0  0
    3.5260    1.2990    0.0000 C   0  0  0  0  0  0  0  0  0  0  0  0
    5.0260    1.2990    0.0000 C   0  0  0  0  0  0  0  0  0  0  0  0
    5.7760    0.0000    0.0000 C   0  0  0  0  0  0  0  0  0  0  0  0
    5.0260   -1.2990    0.0000 C   0  0  0  0  0  0  0  0  0  0  0  0
    7.2760    0.0000    0.0000 C   0  0  0  0  0  0  0  0  0  0  0  0
    2.7760    0.0000    0.0000 C   0  0  0  0  0  0  0  0  0  0  0  0
    3.5260   -1.2990    0.0000 O   0  0  0  0  0  0  0  0  0  0  0  0
    1.2760    0.0000    0.0000 N   0  0  0  0  0  0  0  0  0  0  0  0
    0.3943    1.2135    0.0000 C   0  0  0  0  0  0  0  0  0  0  0  0
   -1.0323    0.7500    0.0000 C   0  0  0  0  0  0  0  0  0  0  0  0
   -1.0323   -0.7500    0.0000 C   0  0  0  0  0  0  0  0  0  0  0  0
    0.3943   -1.2135    0.0000 C   0  0  0  0  0  0  0  0  0  0  0  0
    0.8578   -2.6401    0.0000 C   0  0  0  0  0  0  0  0  0  0  0  0
    2.3250   -2.9520    0.0000 O   0  0  0  0  0  0  0  0  0  0  0  0
   -0.1459   -3.7548    0.0000 N   0  0  0  0  0  0  0  0  0  0  0  0
    0.3177   -5.1814    0.0000 C   0  0  0  0  0  0  0  0  0  0  0  0
   -0.6860   -6.2961    0.0000 C   0  0  0  0  0  0  0  0  0  0  0  0
   -2.1533   -5.9843    0.0000 O   0  0  0  0  0  0  0  0  0  0  0  0
   -0.2225   -7.7227    0.0000 C   0  0  0  0  0  0  0  0  0  0  0  0
    1.7849   -5.4933    0.0000 C   0  0  0  0  0  0  0  0  0  0  0  0
    2.7886   -4.3786    0.0000 O   0  0  0  0  0  0  0  0  0  0  0  0
    2.2484   -6.9199    0.0000 N   0  0  0  0  0  0  0  0  0  0  0  0
    3.7156   -7.2317    0.0000 C   0  0  0  0  0  0  0  0  0  0  0  0
    4.1791   -8.6583    0.0000 C   0  0  0  0  0  0  0  0  0  0  0  0
    5.6464   -8.9702    0.0000 C   0  0  0  0  0  0  0  0  0  0  0  0
    7.1136   -9.2821    0.0000 C   0  0  0  0  0  0  0  0  0  0  0  0
    4.7193   -6.1170    0.0000 C   0  0  0  0  0  0  0  0  0  0  0  0
    4.2558   -4.6904    0.0000 O   0  0  0  0  0  0  0  0  0  0  0  0
    6.1865   -6.4289    0.0000 O   0  0  0  0  0  0  0  0  0  0  0  0
  2  1  1  1
  2  3  1  0
  3  4  1  0
  4  5  1  0
  4  6  1  0
  2  7  1  0
  7  8  2  0
  7  9  1  0
  9 10  1  0
 10 11  1  1
 11 12  1  0
 12 13  1  0
 12 14  1  0
 10 15  1  0
 15 16  2  0
 15 17  1  0
 17 18  1  0
 18 19  1  0
 19 20  1  0
 20 21  1  0
 21 22  1  6
 22 23  2  0
 22 24  1  0
 25 24  1  6
 25 26  1  0
 26 27  1  0
 26 28  1  1
 25 29  1  0
 29 30  2  0
 29 31  1  0
 31 32  1  0
 32 33  1  6
 33 34  1  0
 34 35  3  0
 32 36  1  0
 36 37  2  0
 36 38  1  0
 21 17  1  0
M  END
$$$$

     RDKit          2D

 38 38  0  0  0  0  0  0  0  0999 V2000
    1.2760    5.1962    0.0000 N   0  0  0  0  0  0  0  0  0  0  0  0
    2.7760    5.1962    0.0000 C   0  0  0  0  0  0  0  0  0  0  0  0
    3.5260    6.4952    0.0000 C   0  0  0  0  0  0  0  0  0  0  0  0
    2.7760    7.7942    0.0000 C   0  0  0  0  0  0  0  0  0  0  0  0
    3.5260    9.0933    0.0000 C   0  0  0  0  0  0  0  0  0  0  0  0
    1.2760    7.7942    0.0000 C   0  0  0  0  0  0  0  0  0  0  0  0
    3.5260    3.8971    0.0000 C   0  0  0  0  0  0  0  0  0  0  0  0
    5.0260    3.8971    0.0000 O   0  0  0  0  0  0  0  0  0  0  0  0
    2.7760    2.5981    0.0000 N   0  0  0  0  0  0  0  0  0  0  0  0
    3.5260    1.2990    0.0000 C   0  0  0  0  0  0  0  0  0  0  0  0
    5.0260    1.2990    0.0000 C   0  0  0  0  0  0  0  0  0  0  0  0
    5.7760    0.0000    0.0000 C   0  0  0  0  0  0  0  0  0  0  0  0
    5.0260   -1.2990    0.0000 C   0  0  0  0  0  0  0  0  0  0  0  0
    7.2760    0.0000    0.0000 C   0  0  0  0  0  0  0  0  0  0  0  0
    2.7760    0.0000    0.0000 C   0  0  0  0  0  0  0  0  0  0  0  0
    3.5260   -1.2990    0.0000 O   0  0  0  0  0  0  0  0  0  0  0  0
    1.2760    0.0000    0.0000 N   0  0  0  0  0  0  0  0  0  0  0  0
    0.3943    1.2135    0.0000 C   0  0  0  0  0  0  0  0  0  0  0  0
   -1.0323    0.7500    0.0000 C   0  0  0  0  0  0  0  0  0  0  0  0
   -1.0323   -0.7500    0.0000 C   0  0  0  0  0  0  0  0  0  0  0  0
    0.3943   -1.2135    0.0000 C   0  0  0  0  0  0  0  0  0  0  0  0
    0.8578   -2.6401    0.0000 C   0  0  0  0  0  0  0  0  0  0  0  0
    2.3250   -2.9520    0.0000 O   0  0  0  0  0  0  0  0  0  0  0  0
   -0.1459   -3.7548    0.0000 N   0  0  0  0  0  0  0  0  0  0  0  0
    0.3177   -5.1814    0.0000 C   0  0  0  0  0  0  0  0  0  0  0  0
   -0.6860   -6.2961    0.0000 C   0  0  0  0  0  0  0  0  0  0  0  0
   -2.1533   -5.9843    0.0000 O   0  0  0  0  0  0  0  0  0  0  0  0
   -0.2225   -7.7227    0.0000 C   0  0  0  0  0  0  0  0  0  0  0  0
    1.7849   -5.4933    0.0000 C   0  0  0  0  0  0  0  0  0  0  0  0
    2.7886   -4.3786    0.0000 O   0  0  0  0  0  0  0  0  0  0  0  0
    2.2484   -6.9199    0.0000 N   0  0  0  0  0  0  0  0  0  0  0  0
    3.7156   -7.2317    0.0000 C   0  0  0  0  0  0  0  0  0  0  0  0
    4.1791   -8.6583    0.0000 C   0  0  0  0  0  0  0  0  0  0  0  0
    5.6464   -8.9702    0.0000 C   0  0  0  0  0  0  0  0  0  0  0  0
    7.1136   -9.2821    0.0000 C   0  0  0  0  0  0  0  0  0  0  0  0
    4.7193   -6.1170    0.0000 C   0  0  0  0  0  0  0  0  0  0  0  0
    4.2558   -4.6904    0.0000 O   0  0  0  0  0  0  0  0  0  0  0  0
    6.1865   -6.4289    0.0000 O   0  0  0  0  0  0  0  0  0  0  0  0
  2  1  1  6
  2  3  1  0
  3  4  1  0
  4  5  1  0
  4  6  1  0
  2  7  1  0
  7  8  2  0
  7  9  1  0
  9 10  1  0
 10 11  1  1
 11 12  1  0
 12 13  1  0
 12 14  1  0
 10 15  1  0
 15 16  2  0
 15 17  1  0
 17 18  1  0
 18 19  1  0
 19 20  1  0
 20 21  1  0
 21 22  1  6
 22 23  2  0
 22 24  1  0
 25 24  1  6
 25 26  1  0
 26 27  1  0
 26 28  1  1
 25 29  1  0
 29 30  2  0
 29 31  1  0
 31 32  1  0
 32 33  1  6
 33 34  1  0
 34 35  3  0
 32 36  1  0
 36 37  2  0
 36 38  1  0
 21 17  1  0
M  END
$$$$

     RDKit          2D

 39 39  0  0  0  0  0  0  0  0999 V2000
    1.2760    5.1962    0.0000 N   0  0  0  0  0  0  0  0  0  0  0  0
    0.5260    6.4952    0.0000 C   0  0  0  0  0  0  0  0  0  0  0  0
    2.7760    5.1962    0.0000 C   0  0  0  0  0  0  0  0  0  0  0  0
    3.5260    6.4952    0.0000 C   0  0  0  0  0  0  0  0  0  0  0  0
    2.7760    7.7942    0.0000 C   0  0  0  0  0  0  0  0  0  0  0  0
    3.5260    9.0933    0.0000 C   0  0  0  0  0  0  0  0  0  0  0  0
    1.2760    7.7942    0.0000 C   0  0  0  0  0  0  0  0  0  0  0  0
    3.5260    3.8971    0.0000 C   0  0  0  0  0  0  0  0  0  0  0  0
    5.0260    3.8971    0.0000 O   0  0  0  0  0  0  0  0  0  0  0  0
    2.7760    2.5981    0.0000 N   0  0  0  0  0  0  0  0  0  0  0  0
    3.5260    1.2990    0.0000 C   0  0  0  0  0  0  0  0  0  0  0  0
    5.0260    1.2990    0.0000 C   0  0  0  0  0  0  0  0  0  0  0  0
    5.7760    0.0000    0.0000 C   0  0  0  0  0  0  0  0  0  0  0  0
    7.2760    0.0000    0.0000 C   0  0  0  0  0  0  0  0  0  0  0  0
    5.0260   -1.2990    0.0000 C   0  0  0  0  0  0  0  0  0  0  0  0
    2.7760    0.0000    0.0000 C   0  0  0  0  0  0  0  0  0  0  0  0
    3.5260   -1.2990    0.0000 O   0  0  0  0  0  0  0  0  0  0  0  0
    1.2760    0.0000    0.0000 N   0  0  0  0  0  0  0  0  0  0  0  0
    0.3943    1.2135    0.0000 C   0  0  0  0  0  0  0  0  0  0  0  0
   -1.0323    0.7500    0.0000 C   0  0  0  0  0  0  0  0  0  0  0  0
   -1.0323   -0.7500    0.0000 C   0  0  0  0  0  0  0  0  0  0  0  0
    0.3943   -1.2135    0.0000 C   0  0  0  0  0  0  0  0  0  0  0  0
    0.8578   -2.6401    0.0000 C   0  0  0  0  0  0  0  0  0  0  0  0
    2.3250   -2.9520    0.0000 O   0  0  0  0  0  0  0  0  0  0  0  0
   -0.1459   -3.7548    0.0000 N   0  0  0  0  0  0  0  0  0  0  0  0
    0.3177   -5.1814    0.0000 C   0  0  0  0  0  0  0  0  0  0  0  0
   -0.6860   -6.2961    0.0000 C   0  0  0  0  0  0  0  0  0  0  0  0
   -2.1533   -5.9843    0.0000 O   0  0  0  0  0  0  0  0  0  0  0  0
   -0.2225   -7.7227    0.0000 C   0  0  0  0  0  0  0  0  0  0  0  0
    1.7849   -5.4933    0.0000 C   0  0  0  0  0  0  0  0  0  0  0  0
    2.7886   -4.3786    0.0000 O   0  0  0  0  0  0  0  0  0  0  0  0
    2.2484   -6.9199    0.0000 N   0  0  0  0  0  0  0  0  0  0  0  0
    3.7156   -7.2317    0.0000 C   0  0  0  0  0  0  0  0  0  0  0  0
    4.1791   -8.6583    0.0000 C   0  0  0  0  0  0  0  0  0  0  0  0
    5.6464   -8.9702    0.0000 C   0  0  0  0  0  0  0  0  0  0  0  0
    7.1136   -9.2821    0.0000 C   0  0  0  0  0  0  0  0  0  0  0  0
    4.7193   -6.1170    0.0000 C   0  0  0  0  0  0  0  0  0  0  0  0
    4.2558   -4.6904    0.0000 O   0  0  0  0  0  0  0  0  0  0  0  0
    6.1865   -6.4289    0.0000 O   0  0  0  0  0  0  0  0  0  0  0  0
  1  2  1  0
  1  3  1  0
  3  4  1  1
  4  5  1  0
  5  6  1  0
  5  7  1  0
  3  8  1  0
  8  9  2  0
  8 10  1  0
 10 11  1  0
 11 12  1  1
 12 13  1  0
 13 14  1  0
 13 15  1  0
 11 16  1  0
 16 17  2  0
 16 18  1  0
 18 19  1  0
 19 20  1  0
 20 21  1  0
 21 22  1  0
 22 23  1  6
 23 24  2  0
 23 25  1  0
 26 25  1  6
 26 27  1  0
 27 28  1  0
 27 29  1  1
 26 30  1  0
 30 31  2  0
 30 32  1  0
 32 33  1  0
 33 34  1  6
 34 35  1  0
 35 36  3  0
 33 37  1  0
 37 38  2  0
 37 39  1  0
 22 18  1  0
M  END
$$$$

     RDKit          2D

 39 39  0  0  0  0  0  0  0  0999 V2000
    1.2760    5.1962    0.0000 N   0  0  0  0  0  0  0  0  0  0  0  0
    0.5260    6.4952    0.0000 C   0  0  0  0  0  0  0  0  0  0  0  0
    2.7760    5.1962    0.0000 C   0  0  0  0  0  0  0  0  0  0  0  0
    3.5260    6.4952    0.0000 C   0  0  0  0  0  0  0  0  0  0  0  0
    2.7760    7.7942    0.0000 C   0  0  0  0  0  0  0  0  0  0  0  0
    3.5260    9.0933    0.0000 C   0  0  0  0  0  0  0  0  0  0  0  0
    1.2760    7.7942    0.0000 C   0  0  0  0  0  0  0  0  0  0  0  0
    3.5260    3.8971    0.0000 C   0  0  0  0  0  0  0  0  0  0  0  0
    5.0260    3.8971    0.0000 O   0  0  0  0  0  0  0  0  0  0  0  0
    2.7760    2.5981    0.0000 N   0  0  0  0  0  0  0  0  0  0  0  0
    3.5260    1.2990    0.0000 C   0  0  0  0  0  0  0  0  0  0  0  0
    5.0260    1.2990    0.0000 C   0  0  0  0  0  0  0  0  0  0  0  0
    5.7760    0.0000    0.0000 C   0  0  0  0  0  0  0  0  0  0  0  0
    7.2760    0.0000    0.0000 C   0  0  0  0  0  0  0  0  0  0  0  0
    5.0260   -1.2990    0.0000 C   0  0  0  0  0  0  0  0  0  0  0  0
    2.7760    0.0000    0.0000 C   0  0  0  0  0  0  0  0  0  0  0  0
    3.5260   -1.2990    0.0000 O   0  0  0  0  0  0  0  0  0  0  0  0
    1.2760    0.0000    0.0000 N   0  0  0  0  0  0  0  0  0  0  0  0
    0.3943    1.2135    0.0000 C   0  0  0  0  0  0  0  0  0  0  0  0
   -1.0323    0.7500    0.0000 C   0  0  0  0  0  0  0  0  0  0  0  0
   -1.0323   -0.7500    0.0000 C   0  0  0  0  0  0  0  0  0  0  0  0
    0.3943   -1.2135    0.0000 C   0  0  0  0  0  0  0  0  0  0  0  0
    0.8578   -2.6401    0.0000 C   0  0  0  0  0  0  0  0  0  0  0  0
    2.3250   -2.9520    0.0000 O   0  0  0  0  0  0  0  0  0  0  0  0
   -0.1459   -3.7548    0.0000 N   0  0  0  0  0  0  0  0  0  0  0  0
    0.3177   -5.1814    0.0000 C   0  0  0  0  0  0  0  0  0  0  0  0
   -0.6860   -6.2961    0.0000 C   0  0  0  0  0  0  0  0  0  0  0  0
   -2.1533   -5.9843    0.0000 O   0  0  0  0  0  0  0  0  0  0  0  0
   -0.2225   -7.7227    0.0000 C   0  0  0  0  0  0  0  0  0  0  0  0
    1.7849   -5.4933    0.0000 C   0  0  0  0  0  0  0  0  0  0  0  0
    2.7886   -4.3786    0.0000 O   0  0  0  0  0  0  0  0  0  0  0  0
    2.2484   -6.9199    0.0000 N   0  0  0  0  0  0  0  0  0  0  0  0
    3.7156   -7.2317    0.0000 C   0  0  0  0  0  0  0  0  0  0  0  0
    4.1791   -8.6583    0.0000 C   0  0  0  0  0  0  0  0  0  0  0  0
    5.6464   -8.9702    0.0000 C   0  0  0  0  0  0  0  0  0  0  0  0
    7.1136   -9.2821    0.0000 C   0  0  0  0  0  0  0  0  0  0  0  0
    4.7193   -6.1170    0.0000 C   0  0  0  0  0  0  0  0  0  0  0  0
    4.2558   -4.6904    0.0000 O   0  0  0  0  0  0  0  0  0  0  0  0
    6.1865   -6.4289    0.0000 O   0  0  0  0  0  0  0  0  0  0  0  0
  1  2  1  0
  1  3  1  0
  3  4  1  6
  4  5  1  0
  5  6  1  0
  5  7  1  0
  3  8  1  0
  8  9  2  0
  8 10  1  0
 10 11  1  0
 11 12  1  1
 12 13  1  0
 13 14  1  0
 13 15  1  0
 11 16  1  0
 16 17  2  0
 16 18  1  0
 18 19  1  0
 19 20  1  0
 20 21  1  0
 21 22  1  0
 22 23  1  6
 23 24  2  0
 23 25  1  0
 26 25  1  6
 26 27  1  0
 27 28  1  0
 27 29  1  1
 26 30  1  0
 30 31  2  0
 30 32  1  0
 32 33  1  0
 33 34  1  6
 34 35  1  0
 35 36  3  0
 33 37  1  0
 37 38  2  0
 37 39  1  0
 22 18  1  0
M  END
$$$$

     RDKit          2D

 38 38  0  0  0  0  0  0  0  0999 V2000
    1.2760    5.1962    0.0000 N   0  0  0  0  0  0  0  0  0  0  0  0
    2.7760    5.1962    0.0000 C   0  0  0  0  0  0  0  0  0  0  0  0
    3.5260    6.4952    0.0000 C   0  0  0  0  0  0  0  0  0  0  0  0
    2.7760    7.7942    0.0000 C   0  0  0  0  0  0  0  0  0  0  0  0
    3.5260    9.0933    0.0000 C   0  0  0  0  0  0  0  0  0  0  0  0
    1.2760    7.7942    0.0000 C   0  0  0  0  0  0  0  0  0  0  0  0
    3.5260    3.8971    0.0000 C   0  0  0  0  0  0  0  0  0  0  0  0
    5.0260    3.8971    0.0000 O   0  0  0  0  0  0  0  0  0  0  0  0
    2.7760    2.5981    0.0000 N   0  0  0  0  0  0  0  0  0  0  0  0
    3.5260    1.2990    0.0000 C   0  0  0  0  0  0  0  0  0  0  0  0
    5.0260    1.2990    0.0000 C   0  0  0  0  0  0  0  0  0  0  0  0
    5.7760    0.0000    0.0000 C   0  0  0  0  0  0  0  0  0  0  0  0
    5.0260   -1.2990    0.0000 C   0  0  0  0  0  0  0  0  0  0  0  0
    7.2760    0.0000    0.0000 C   0  0  0  0  0  0  0  0  0  0  0  0
    2.7760    0.0000    0.0000 C   0  0  0  0  0  0  0  0  0  0  0  0
    3.5260   -1.2990    0.0000 O   0  0  0  0  0  0  0  0  0  0  0  0
    1.2760    0.0000    0.0000 N   0  0  0  0  0  0  0  0  0  0  0  0
    0.3943    1.2135    0.0000 C   0  0  0  0  0  0  0  0  0  0  0  0
   -1.0323    0.7500    0.0000 C   0  0  0  0  0  0  0  0  0  0  0  0
   -1.0323   -0.7500    0.0000 C   0  0  0  0  0  0  0  0  0  0  0  0
    0.3943   -1.2135    0.0000 C   0  0  0  0  0  0  0  0  0  0  0  0
    0.8578   -2.6401    0.0000 C   0  0  0  0  0  0  0  0  0  0  0  0
    2.3250   -2.9520    0.0000 O   0  0  0  0  0  0  0  0  0  0  0  0
   -0.1459   -3.7548    0.0000 N   0  0  0  0  0  0  0  0  0  0  0  0
    0.3177   -5.1814    0.0000 C   0  0  0  0  0  0  0  0  0  0  0  0
   -0.6860   -6.2961    0.0000 C   0  0  0  0  0  0  0  0  0  0  0  0
   -2.1533   -5.9843    0.0000 O   0  0  0  0  0  0  0  0  0  0  0  0
   -0.2225   -7.7227    0.0000 C   0  0  0  0  0  0  0  0  0  0  0  0
    1.7849   -5.4933    0.0000 C   0  0  0  0  0  0  0  0  0  0  0  0
    2.7886   -4.3786    0.0000 O   0  0  0  0  0  0  0  0  0  0  0  0
    2.2484   -6.9199    0.0000 N   0  0  0  0  0  0  0  0  0  0  0  0
    3.7156   -7.2317    0.0000 C   0  0  0  0  0  0  0  0  0  0  0  0
    4.1791   -8.6583    0.0000 C   0  0  0  0  0  0  0  0  0  0  0  0
    5.6464   -8.9702    0.0000 C   0  0  0  0  0  0  0  0  0  0  0  0
    7.1136   -9.2821    0.0000 C   0  0  0  0  0  0  0  0  0  0  0  0
    4.7193   -6.1170    0.0000 C   0  0  0  0  0  0  0  0  0  0  0  0
    4.2558   -4.6904    0.0000 O   0  0  0  0  0  0  0  0  0  0  0  0
    6.1865   -6.4289    0.0000 O   0  0  0  0  0  0  0  0  0  0  0  0
  2  1  1  1
  2  3  1  0
  3  4  1  0
  4  5  1  0
  4  6  1  0
  2  7  1  0
  7  8  2  0
  7  9  1  0
  9 10  1  0
 10 11  1  6
 11 12  1  0
 12 13  1  0
 12 14  1  0
 10 15  1  0
 15 16  2  0
 15 17  1  0
 17 18  1  0
 18 19  1  0
 19 20  1  0
 20 21  1  0
 21 22  1  6
 22 23  2  0
 22 24  1  0
 25 24  1  6
 25 26  1  0
 26 27  1  0
 26 28  1  1
 25 29  1  0
 29 30  2  0
 29 31  1  0
 31 32  1  0
 32 33  1  6
 33 34  1  0
 34 35  3  0
 32 36  1  0
 36 37  2  0
 36 38  1  0
 21 17  1  0
M  END
$$$$

     RDKit          2D

 38 38  0  0  0  0  0  0  0  0999 V2000
    1.2760    5.1962    0.0000 N   0  0  0  0  0  0  0  0  0  0  0  0
    2.7760    5.1962    0.0000 C   0  0  0  0  0  0  0  0  0  0  0  0
    3.5260    6.4952    0.0000 C   0  0  0  0  0  0  0  0  0  0  0  0
    2.7760    7.7942    0.0000 C   0  0  0  0  0  0  0  0  0  0  0  0
    3.5260    9.0933    0.0000 C   0  0  0  0  0  0  0  0  0  0  0  0
    1.2760    7.7942    0.0000 C   0  0  0  0  0  0  0  0  0  0  0  0
    3.5260    3.8971    0.0000 C   0  0  0  0  0  0  0  0  0  0  0  0
    5.0260    3.8971    0.0000 O   0  0  0  0  0  0  0  0  0  0  0  0
    2.7760    2.5981    0.0000 N   0  0  0  0  0  0  0  0  0  0  0  0
    3.5260    1.2990    0.0000 C   0  0  0  0  0  0  0  0  0  0  0  0
    5.0260    1.2990    0.0000 C   0  0  0  0  0  0  0  0  0  0  0  0
    5.7760    0.0000    0.0000 C   0  0  0  0  0  0  0  0  0  0  0  0
    5.0260   -1.2990    0.0000 C   0  0  0  0  0  0  0  0  0  0  0  0
    7.2760    0.0000    0.0000 C   0  0  0  0  0  0  0  0  0  0  0  0
    2.7760    0.0000    0.0000 C   0  0  0  0  0  0  0  0  0  0  0  0
    3.5260   -1.2990    0.0000 O   0  0  0  0  0  0  0  0  0  0  0  0
    1.2760    0.0000    0.0000 N   0  0  0  0  0  0  0  0  0  0  0  0
    0.3943    1.2135    0.0000 C   0  0  0  0  0  0  0  0  0  0  0  0
   -1.0323    0.7500    0.0000 C   0  0  0  0  0  0  0  0  0  0  0  0
   -1.0323   -0.7500    0.0000 C   0  0  0  0  0  0  0  0  0  0  0  0
    0.3943   -1.2135    0.0000 C   0  0  0  0  0  0  0  0  0  0  0  0
    0.8578   -2.6401    0.0000 C   0  0  0  0  0  0  0  0  0  0  0  0
    2.3250   -2.9520    0.0000 O   0  0  0  0  0  0  0  0  0  0  0  0
   -0.1459   -3.7548    0.0000 N   0  0  0  0  0  0  0  0  0  0  0  0
    0.3177   -5.1814    0.0000 C   0  0  0  0  0  0  0  0  0  0  0  0
   -0.6860   -6.2961    0.0000 C   0  0  0  0  0  0  0  0  0  0  0  0
   -2.1533   -5.9843    0.0000 O   0  0  0  0  0  0  0  0  0  0  0  0
   -0.2225   -7.7227    0.0000 C   0  0  0  0  0  0  0  0  0  0  0  0
    1.7849   -5.4933    0.0000 C   0  0  0  0  0  0  0  0  0  0  0  0
    2.7886   -4.3786    0.0000 O   0  0  0  0  0  0  0  0  0  0  0  0
    2.2484   -6.9199    0.0000 N   0  0  0  0  0  0  0  0  0  0  0  0
    3.7156   -7.2317    0.0000 C   0  0  0  0  0  0  0  0  0  0  0  0
    4.1791   -8.6583    0.0000 C   0  0  0  0  0  0  0  0  0  0  0  0
    5.6464   -8.9702    0.0000 C   0  0  0  0  0  0  0  0  0  0  0  0
    7.1136   -9.2821    0.0000 C   0  0  0  0  0  0  0  0  0  0  0  0
    4.7193   -6.1170    0.0000 C   0  0  0  0  0  0  0  0  0  0  0  0
    4.2558   -4.6904    0.0000 O   0  0  0  0  0  0  0  0  0  0  0  0
    6.1865   -6.4289    0.0000 O   0  0  0  0  0  0  0  0  0  0  0  0
  2  1  1  6
  2  3  1  0
  3  4  1  0
  4  5  1  0
  4  6  1  0
  2  7  1  0
  7  8  2  0
  7  9  1  0
  9 10  1  0
 10 11  1  6
 11 12  1  0
 12 13  1  0
 12 14  1  0
 10 15  1  0
 15 16  2  0
 15 17  1  0
 17 18  1  0
 18 19  1  0
 19 20  1  0
 20 21  1  0
 21 22  1  6
 22 23  2  0
 22 24  1  0
 25 24  1  6
 25 26  1  0
 26 27  1  0
 26 28  1  1
 25 29  1  0
 29 30  2  0
 29 31  1  0
 31 32  1  0
 32 33  1  6
 33 34  1  0
 34 35  3  0
 32 36  1  0
 36 37  2  0
 36 38  1  0
 21 17  1  0
M  END
$$$$

     RDKit          2D

 39 39  0  0  0  0  0  0  0  0999 V2000
    1.2760    5.1962    0.0000 N   0  0  0  0  0  0  0  0  0  0  0  0
    0.5260    6.4952    0.0000 C   0  0  0  0  0  0  0  0  0  0  0  0
    2.7760    5.1962    0.0000 C   0  0  0  0  0  0  0  0  0  0  0  0
    3.5260    6.4952    0.0000 C   0  0  0  0  0  0  0  0  0  0  0  0
    2.7760    7.7942    0.0000 C   0  0  0  0  0  0  0  0  0  0  0  0
    3.5260    9.0933    0.0000 C   0  0  0  0  0  0  0  0  0  0  0  0
    1.2760    7.7942    0.0000 C   0  0  0  0  0  0  0  0  0  0  0  0
    3.5260    3.8971    0.0000 C   0  0  0  0  0  0  0  0  0  0  0  0
    5.0260    3.8971    0.0000 O   0  0  0  0  0  0  0  0  0  0  0  0
    2.7760    2.5981    0.0000 N   0  0  0  0  0  0  0  0  0  0  0  0
    3.5260    1.2990    0.0000 C   0  0  0  0  0  0  0  0  0  0  0  0
    5.0260    1.2990    0.0000 C   0  0  0  0  0  0  0  0  0  0  0  0
    5.7760    0.0000    0.0000 C   0  0  0  0  0  0  0  0  0  0  0  0
    7.2760    0.0000    0.0000 C   0  0  0  0  0  0  0  0  0  0  0  0
    5.0260   -1.2990    0.0000 C   0  0  0  0  0  0  0  0  0  0  0  0
    2.7760    0.0000    0.0000 C   0  0  0  0  0  0  0  0  0  0  0  0
    3.5260   -1.2990    0.0000 O   0  0  0  0  0  0  0  0  0  0  0  0
    1.2760    0.0000    0.0000 N   0  0  0  0  0  0  0  0  0  0  0  0
    0.3943    1.2135    0.0000 C   0  0  0  0  0  0  0  0  0  0  0  0
   -1.0323    0.7500    0.0000 C   0  0  0  0  0  0  0  0  0  0  0  0
   -1.0323   -0.7500    0.0000 C   0  0  0  0  0  0  0  0  0  0  0  0
    0.3943   -1.2135    0.0000 C   0  0  0  0  0  0  0  0  0  0  0  0
    0.8578   -2.6401    0.0000 C   0  0  0  0  0  0  0  0  0  0  0  0
    2.3250   -2.9520    0.0000 O   0  0  0  0  0  0  0  0  0  0  0  0
   -0.1459   -3.7548    0.0000 N   0  0  0  0  0  0  0  0  0  0  0  0
    0.3177   -5.1814    0.0000 C   0  0  0  0  0  0  0  0  0  0  0  0
   -0.6860   -6.2961    0.0000 C   0  0  0  0  0  0  0  0  0  0  0  0
   -2.1533   -5.9843    0.0000 O   0  0  0  0  0  0  0  0  0  0  0  0
   -0.2225   -7.7227    0.0000 C   0  0  0  0  0  0  0  0  0  0  0  0
    1.7849   -5.4933    0.0000 C   0  0  0  0  0  0  0  0  0  0  0  0
    2.7886   -4.3786    0.0000 O   0  0  0  0  0  0  0  0  0  0  0  0
    2.2484   -6.9199    0.0000 N   0  0  0  0  0  0  0  0  0  0  0  0
    3.7156   -7.2317    0.0000 C   0  0  0  0  0  0  0  0  0  0  0  0
    4.1791   -8.6583    0.0000 C   0  0  0  0  0  0  0  0  0  0  0  0
    5.6464   -8.9702    0.0000 C   0  0  0  0  0  0  0  0  0  0  0  0
    7.1136   -9.2821    0.0000 C   0  0  0  0  0  0  0  0  0  0  0  0
    4.7193   -6.1170    0.0000 C   0  0  0  0  0  0  0  0  0  0  0  0
    4.2558   -4.6904    0.0000 O   0  0  0  0  0  0  0  0  0  0  0  0
    6.1865   -6.4289    0.0000 O   0  0  0  0  0  0  0  0  0  0  0  0
  1  2  1  0
  1  3  1  0
  3  4  1  1
  4  5  1  0
  5  6  1  0
  5  7  1  0
  3  8  1  0
  8  9  2  0
  8 10  1  0
 10 11  1  0
 11 12  1  6
 12 13  1  0
 13 14  1  0
 13 15  1  0
 11 16  1  0
 16 17  2  0
 16 18  1  0
 18 19  1  0
 19 20  1  0
 20 21  1  0
 21 22  1  0
 22 23  1  6
 23 24  2  0
 23 25  1  0
 26 25  1  6
 26 27  1  0
 27 28  1  0
 27 29  1  1
 26 30  1  0
 30 31  2  0
 30 32  1  0
 32 33  1  0
 33 34  1  6
 34 35  1  0
 35 36  3  0
 33 37  1  0
 37 38  2  0
 37 39  1  0
 22 18  1  0
M  END
$$$$

     RDKit          2D

 39 39  0  0  0  0  0  0  0  0999 V2000
    1.2760    5.1962    0.0000 N   0  0  0  0  0  0  0  0  0  0  0  0
    0.5260    6.4952    0.0000 C   0  0  0  0  0  0  0  0  0  0  0  0
    2.7760    5.1962    0.0000 C   0  0  0  0  0  0  0  0  0  0  0  0
    3.5260    6.4952    0.0000 C   0  0  0  0  0  0  0  0  0  0  0  0
    2.7760    7.7942    0.0000 C   0  0  0  0  0  0  0  0  0  0  0  0
    3.5260    9.0933    0.0000 C   0  0  0  0  0  0  0  0  0  0  0  0
    1.2760    7.7942    0.0000 C   0  0  0  0  0  0  0  0  0  0  0  0
    3.5260    3.8971    0.0000 C   0  0  0  0  0  0  0  0  0  0  0  0
    5.0260    3.8971    0.0000 O   0  0  0  0  0  0  0  0  0  0  0  0
    2.7760    2.5981    0.0000 N   0  0  0  0  0  0  0  0  0  0  0  0
    3.5260    1.2990    0.0000 C   0  0  0  0  0  0  0  0  0  0  0  0
    5.0260    1.2990    0.0000 C   0  0  0  0  0  0  0  0  0  0  0  0
    5.7760    0.0000    0.0000 C   0  0  0  0  0  0  0  0  0  0  0  0
    7.2760    0.0000    0.0000 C   0  0  0  0  0  0  0  0  0  0  0  0
    5.0260   -1.2990    0.0000 C   0  0  0  0  0  0  0  0  0  0  0  0
    2.7760    0.0000    0.0000 C   0  0  0  0  0  0  0  0  0  0  0  0
    3.5260   -1.2990    0.0000 O   0  0  0  0  0  0  0  0  0  0  0  0
    1.2760    0.0000    0.0000 N   0  0  0  0  0  0  0  0  0  0  0  0
    0.3943    1.2135    0.0000 C   0  0  0  0  0  0  0  0  0  0  0  0
   -1.0323    0.7500    0.0000 C   0  0  0  0  0  0  0  0  0  0  0  0
   -1.0323   -0.7500    0.0000 C   0  0  0  0  0  0  0  0  0  0  0  0
    0.3943   -1.2135    0.0000 C   0  0  0  0  0  0  0  0  0  0  0  0
    0.8578   -2.6401    0.0000 C   0  0  0  0  0  0  0  0  0  0  0  0
    2.3250   -2.9520    0.0000 O   0  0  0  0  0  0  0  0  0  0  0  0
   -0.1459   -3.7548    0.0000 N   0  0  0  0  0  0  0  0  0  0  0  0
    0.3177   -5.1814    0.0000 C   0  0  0  0  0  0  0  0  0  0  0  0
   -0.6860   -6.2961    0.0000 C   0  0  0  0  0  0  0  0  0  0  0  0
   -2.1533   -5.9843    0.0000 O   0  0  0  0  0  0  0  0  0  0  0  0
   -0.2225   -7.7227    0.0000 C   0  0  0  0  0  0  0  0  0  0  0  0
    1.7849   -5.4933    0.0000 C   0  0  0  0  0  0  0  0  0  0  0  0
    2.7886   -4.3786    0.0000 O   0  0  0  0  0  0  0  0  0  0  0  0
    2.2484   -6.9199    0.0000 N   0  0  0  0  0  0  0  0  0  0  0  0
    3.7156   -7.2317    0.0000 C   0  0  0  0  0  0  0  0  0  0  0  0
    4.1791   -8.6583    0.0000 C   0  0  0  0  0  0  0  0  0  0  0  0
    5.6464   -8.9702    0.0000 C   0  0  0  0  0  0  0  0  0  0  0  0
    7.1136   -9.2821    0.0000 C   0  0  0  0  0  0  0  0  0  0  0  0
    4.7193   -6.1170    0.0000 C   0  0  0  0  0  0  0  0  0  0  0  0
    4.2558   -4.6904    0.0000 O   0  0  0  0  0  0  0  0  0  0  0  0
    6.1865   -6.4289    0.0000 O   0  0  0  0  0  0  0  0  0  0  0  0
  1  2  1  0
  1  3  1  0
  3  4  1  6
  4  5  1  0
  5  6  1  0
  5  7  1  0
  3  8  1  0
  8  9  2  0
  8 10  1  0
 10 11  1  0
 11 12  1  6
 12 13  1  0
 13 14  1  0
 13 15  1  0
 11 16  1  0
 16 17  2  0
 16 18  1  0
 18 19  1  0
 19 20  1  0
 20 21  1  0
 21 22  1  0
 22 23  1  6
 23 24  2  0
 23 25  1  0
 26 25  1  6
 26 27  1  0
 27 28  1  0
 27 29  1  1
 26 30  1  0
 30 31  2  0
 30 32  1  0
 32 33  1  0
 33 34  1  6
 34 35  1  0
 35 36  3  0
 33 37  1  0
 37 38  2  0
 37 39  1  0
 22 18  1  0
M  END
$$$$

     RDKit          2D

 39 39  0  0  0  0  0  0  0  0999 V2000
    8.0260    1.2990    0.0000 N   0  0  0  0  0  0  0  0  0  0  0  0
    7.2760    0.0000    0.0000 C   0  0  0  0  0  0  0  0  0  0  0  0
    8.0260   -1.2990    0.0000 C   0  0  0  0  0  0  0  0  0  0  0  0
    9.5260   -1.2990    0.0000 C   0  0  0  0  0  0  0  0  0  0  0  0
   10.2760   -2.5981    0.0000 C   0  0  0  0  0  0  0  0  0  0  0  0
   10.2760    0.0000    0.0000 C   0  0  0  0  0  0  0  0  0  0  0  0
    5.7760    0.0000    0.0000 C   0  0  0  0  0  0  0  0  0  0  0  0
    5.0260   -1.2990    0.0000 O   0  0  0  0  0  0  0  0  0  0  0  0
    5.0260    1.2990    0.0000 N   0  0  0  0  0  0  0  0  0  0  0  0
    5.7760    2.5981    0.0000 C   0  0  0  0  0  0  0  0  0  0  0  0
    3.5260    1.2990    0.0000 C   0  0  0  0  0  0  0  0  0  0  0  0
    2.7760    2.5981    0.0000 C   0  0  0  0  0  0  0  0  0  0  0  0
    3.5260    3.8971    0.0000 C   0  0  0  0  0  0  0  0  0  0  0  0
    2.7760    5.1962    0.0000 C   0  0  0  0  0  0  0  0  0  0  0  0
    5.0260    3.8971    0.0000 C   0  0  0  0  0  0  0  0  0  0  0  0
    2.7760    0.0000    0.0000 C   0  0  0  0  0  0  0  0  0  0  0  0
    3.5260   -1.2990    0.0000 O   0  0  0  0  0  0  0  0  0  0  0  0
    1.2760    0.0000    0.0000 N   0  0  0  0  0  0  0  0  0  0  0  0
    0.3943    1.2135    0.0000 C   0  0  0  0  0  0  0  0  0  0  0  0
   -1.0323    0.7500    0.0000 C   0  0  0  0  0  0  0  0  0  0  0  0
   -1.0323   -0.7500    0.0000 C   0  0  0  0  0  0  0  0  0  0  0  0
    0.3943   -1.2135    0.0000 C   0  0  0  0  0  0  0  0  0  0  0  0
    0.8578   -2.6401    0.0000 C   0  0  0  0  0  0  0  0  0  0  0  0
    2.3250   -2.9520    0.0000 O   0  0  0  0  0  0  0  0  0  0  0  0
   -0.1459   -3.7548    0.0000 N   0  0  0  0  0  0  0  0  0  0  0  0
    0.3177   -5.1814    0.0000 C   0  0  0  0  0  0  0  0  0  0  0  0
   -0.6860   -6.2961    0.0000 C   0  0  0  0  0  0  0  0  0  0  0  0
   -2.1533   -5.9843    0.0000 O   0  0  0  0  0  0  0  0  0  0  0  0
   -0.2225   -7.7227    0.0000 C   0  0  0  0  0  0  0  0  0  0  0  0
    1.7849   -5.4933    0.0000 C   0  0  0  0  0  0  0  0  0  0  0  0
    2.7886   -4.3786    0.0000 O   0  0  0  0  0  0  0  0  0  0  0  0
    2.2484   -6.9199    0.0000 N   0  0  0  0  0  0  0  0  0  0  0  0
    3.7156   -7.2317    0.0000 C   0  0  0  0  0  0  0  0  0  0  0  0
    4.1791   -8.6583    0.0000 C   0  0  0  0  0  0  0  0  0  0  0  0
    5.6464   -8.9702    0.0000 C   0  0  0  0  0  0  0  0  0  0  0  0
    7.1136   -9.2821    0.0000 C   0  0  0  0  0  0  0  0  0  0  0  0
    4.7193   -6.1170    0.0000 C   0  0  0  0  0  0  0  0  0  0  0  0
    4.2558   -4.6904    0.0000 O   0  0  0  0  0  0  0  0  0  0  0  0
    6.1865   -6.4289    0.0000 O   0  0  0  0  0  0  0  0  0  0  0  0
  2  1  1  1
  2  3  1  0
  3  4  1  0
  4  5  1  0
  4  6  1  0
  2  7  1  0
  7  8  2  0
  7  9  1  0
  9 10  1  0
  9 11  1  0
 11 12  1  6
 12 13  1  0
 13 14  1  0
 13 15  1  0
 11 16  1  0
 16 17  2  0
 16 18  1  0
 18 19  1  0
 19 20  1  0
 20 21  1  0
 21 22  1  0
 22 23  1  6
 23 24  2  0
 23 25  1  0
 26 25  1  6
 26 27  1  0
 27 28  1  0
 27 29  1  1
 26 30  1  0
 30 31  2  0
 30 32  1  0
 32 33  1  0
 33 34  1  6
 34 35  1  0
 35 36  3  0
 33 37  1  0
 37 38  2  0
 37 39  1  0
 22 18  1  0
M  END
$$$$

     RDKit          2D

 39 39  0  0  0  0  0  0  0  0999 V2000
    8.0260    1.2990    0.0000 N   0  0  0  0  0  0  0  0  0  0  0  0
    7.2760    0.0000    0.0000 C   0  0  0  0  0  0  0  0  0  0  0  0
    8.0260   -1.2990    0.0000 C   0  0  0  0  0  0  0  0  0  0  0  0
    9.5260   -1.2990    0.0000 C   0  0  0  0  0  0  0  0  0  0  0  0
   10.2760   -2.5981    0.0000 C   0  0  0  0  0  0  0  0  0  0  0  0
   10.2760    0.0000    0.0000 C   0  0  0  0  0  0  0  0  0  0  0  0
    5.7760    0.0000    0.0000 C   0  0  0  0  0  0  0  0  0  0  0  0
    5.0260   -1.2990    0.0000 O   0  0  0  0  0  0  0  0  0  0  0  0
    5.0260    1.2990    0.0000 N   0  0  0  0  0  0  0  0  0  0  0  0
    5.7760    2.5981    0.0000 C   0  0  0  0  0  0  0  0  0  0  0  0
    3.5260    1.2990    0.0000 C   0  0  0  0  0  0  0  0  0  0  0  0
    2.7760    2.5981    0.0000 C   0  0  0  0  0  0  0  0  0  0  0  0
    3.5260    3.8971    0.0000 C   0  0  0  0  0  0  0  0  0  0  0  0
    2.7760    5.1962    0.0000 C   0  0  0  0  0  0  0  0  0  0  0  0
    5.0260    3.8971    0.0000 C   0  0  0  0  0  0  0  0  0  0  0  0
    2.7760    0.0000    0.0000 C   0  0  0  0  0  0  0  0  0  0  0  0
    3.5260   -1.2990    0.0000 O   0  0  0  0  0  0  0  0  0  0  0  0
    1.2760    0.0000    0.0000 N   0  0  0  0  0  0  0  0  0  0  0  0
    0.3943    1.2135    0.0000 C   0  0  0  0  0  0  0  0  0  0  0  0
   -1.0323    0.7500    0.0000 C   0  0  0  0  0  0  0  0  0  0  0  0
   -1.0323   -0.7500    0.0000 C   0  0  0  0  0  0  0  0  0  0  0  0
    0.3943   -1.2135    0.0000 C   0  0  0  0  0  0  0  0  0  0  0  0
    0.8578   -2.6401    0.0000 C   0  0  0  0  0  0  0  0  0  0  0  0
    2.3250   -2.9520    0.0000 O   0  0  0  0  0  0  0  0  0  0  0  0
   -0.1459   -3.7548    0.0000 N   0  0  0  0  0  0  0  0  0  0  0  0
    0.3177   -5.1814    0.0000 C   0  0  0  0  0  0  0  0  0  0  0  0
   -0.6860   -6.2961    0.0000 C   0  0  0  0  0  0  0  0  0  0  0  0
   -2.1533   -5.9843    0.0000 O   0  0  0  0  0  0  0  0  0  0  0  0
   -0.2225   -7.7227    0.0000 C   0  0  0  0  0  0  0  0  0  0  0  0
    1.7849   -5.4933    0.0000 C   0  0  0  0  0  0  0  0  0  0  0  0
    2.7886   -4.3786    0.0000 O   0  0  0  0  0  0  0  0  0  0  0  0
    2.2484   -6.9199    0.0000 N   0  0  0  0  0  0  0  0  0  0  0  0
    3.7156   -7.2317    0.0000 C   0  0  0  0  0  0  0  0  0  0  0  0
    4.1791   -8.6583    0.0000 C   0  0  0  0  0  0  0  0  0  0  0  0
    5.6464   -8.9702    0.0000 C   0  0  0  0  0  0  0  0  0  0  0  0
    7.1136   -9.2821    0.0000 C   0  0  0  0  0  0  0  0  0  0  0  0
    4.7193   -6.1170    0.0000 C   0  0  0  0  0  0  0  0  0  0  0  0
    4.2558   -4.6904    0.0000 O   0  0  0  0  0  0  0  0  0  0  0  0
    6.1865   -6.4289    0.0000 O   0  0  0  0  0  0  0  0  0  0  0  0
  2  1  1  6
  2  3  1  0
  3  4  1  0
  4  5  1  0
  4  6  1  0
  2  7  1  0
  7  8  2  0
  7  9  1  0
  9 10  1  0
  9 11  1  0
 11 12  1  6
 12 13  1  0
 13 14  1  0
 13 15  1  0
 11 16  1  0
 16 17  2  0
 16 18  1  0
 18 19  1  0
 19 20  1  0
 20 21  1  0
 21 22  1  0
 22 23  1  6
 23 24  2  0
 23 25  1  0
 26 25  1  6
 26 27  1  0
 27 28  1  0
 27 29  1  1
 26 30  1  0
 30 31  2  0
 30 32  1  0
 32 33  1  0
 33 34  1  6
 34 35  1  0
 35 36  3  0
 33 37  1  0
 37 38  2  0
 37 39  1  0
 22 18  1  0
M  END
$$$$

     RDKit          2D

 23 22  0  0  0  0  0  0  0  0999 V2000
    3.8971    2.2500    0.0000 N   0  0  0  0  0  0  0  0  0  0  0  0
    2.5981    3.0000    0.0000 C   0  0  0  0  0  0  0  0  0  0  0  0
    1.2990    2.2500    0.0000 C   0  0  0  0  0  0  0  0  0  0  0  0
    1.2990    0.7500    0.0000 C   0  0  0  0  0  0  0  0  0  0  0  0
    0.0000    0.0000    0.0000 C   0  0  0  0  0  0  0  0  0  0  0  0
    2.5981   -0.0000    0.0000 C   0  0  0  0  0  0  0  0  0  0  0  0
    2.5981    4.5000    0.0000 C   0  0  0  0  0  0  0  0  0  0  0  0
    1.2990    5.2500    0.0000 O   0  0  0  0  0  0  0  0  0  0  0  0
    3.8971    5.2500    0.0000 N   0  0  0  0  0  0  0  0  0  0  0  0
    3.8971    6.7500    0.0000 C   0  0  0  0  0  0  0  0  0  0  0  0
    5.1962    7.5000    0.0000 C   0  0  0  0  0  0  0  0  0  0  0  0
    6.4952    6.7500    0.0000 O   0  0  0  0  0  0  0  0  0  0  0  0
    5.1962    9.0000    0.0000 C   0  0  0  0  0  0  0  0  0  0  0  0
    2.5981    7.5000    0.0000 C   0  0  0  0  0  0  0  0  0  0  0  0
    1.2990    6.7500    0.0000 O   0  0  0  0  0  0  0  0  0  0  0  0
    2.5981    9.0000    0.0000 N   0  0  0  0  0  0  0  0  0  0  0  0
    1.2990    9.7500    0.0000 C   0  0  0  0  0  0  0  0  0  0  0  0
    1.2990   11.2500    0.0000 C   0  0  0  0  0  0  0  0  0  0  0  0
    0.0000   12.0000    0.0000 C   0  0  0  0  0  0  0  0  0  0  0  0
   -1.2990   12.7500    0.0000 C   0  0  0  0  0  0  0  0  0  0  0  0
    0.0000    9.0000    0.0000 C   0  0  0  0  0  0  0  0  0  0  0  0
    0.0000    7.5000    0.0000 O   0  0  0  0  0  0  0  0  0  0  0  0
   -1.2990    9.7500    0.0000 O   0  0  0  0  0  0  0  0  0  0  0  0
  2  1  1  1
  2  3  1  0
  3  4  1  0
  4  5  1  0
  4  6  1  0
  2  7  1  0
  7  8  2  0
  7  9  1  0
 10  9  1  1
 10 11  1  0
 11 12  1  0
 11 13  1  1
 10 14  1  0
 14 15  2  0
 14 16  1  0
 16 17  1  0
 17 18  1  6
 18 19  1  0
 19 20  3  0
 17 21  1  0
 21 22  2  0
 21 23  1  0
M  END
$$$$

     RDKit          2D

 23 22  0  0  0  0  0  0  0  0999 V2000
    3.8971    2.2500    0.0000 N   0  0  0  0  0  0  0  0  0  0  0  0
    2.5981    3.0000    0.0000 C   0  0  0  0  0  0  0  0  0  0  0  0
    1.2990    2.2500    0.0000 C   0  0  0  0  0  0  0  0  0  0  0  0
    1.2990    0.7500    0.0000 C   0  0  0  0  0  0  0  0  0  0  0  0
    0.0000    0.0000    0.0000 C   0  0  0  0  0  0  0  0  0  0  0  0
    2.5981   -0.0000    0.0000 C   0  0  0  0  0  0  0  0  0  0  0  0
    2.5981    4.5000    0.0000 C   0  0  0  0  0  0  0  0  0  0  0  0
    1.2990    5.2500    0.0000 O   0  0  0  0  0  0  0  0  0  0  0  0
    3.8971    5.2500    0.0000 N   0  0  0  0  0  0  0  0  0  0  0  0
    3.8971    6.7500    0.0000 C   0  0  0  0  0  0  0  0  0  0  0  0
    5.1962    7.5000    0.0000 C   0  0  0  0  0  0  0  0  0  0  0  0
    6.4952    6.7500    0.0000 O   0  0  0  0  0  0  0  0  0  0  0  0
    5.1962    9.0000    0.0000 C   0  0  0  0  0  0  0  0  0  0  0  0
    2.5981    7.5000    0.0000 C   0  0  0  0  0  0  0  0  0  0  0  0
    1.2990    6.7500    0.0000 O   0  0  0  0  0  0  0  0  0  0  0  0
    2.5981    9.0000    0.0000 N   0  0  0  0  0  0  0  0  0  0  0  0
    1.2990    9.7500    0.0000 C   0  0  0  0  0  0  0  0  0  0  0  0
    1.2990   11.2500    0.0000 C   0  0  0  0  0  0  0  0  0  0  0  0
    0.0000   12.0000    0.0000 C   0  0  0  0  0  0  0  0  0  0  0  0
   -1.2990   12.7500    0.0000 C   0  0  0  0  0  0  0  0  0  0  0  0
    0.0000    9.0000    0.0000 C   0  0  0  0  0  0  0  0  0  0  0  0
    0.0000    7.5000    0.0000 O   0  0  0  0  0  0  0  0  0  0  0  0
   -1.2990    9.7500    0.0000 O   0  0  0  0  0  0  0  0  0  0  0  0
  2  1  1  6
  2  3  1  0
  3  4  1  0
  4  5  1  0
  4  6  1  0
  2  7  1  0
  7  8  2  0
  7  9  1  0
 10  9  1  1
 10 11  1  0
 11 12  1  0
 11 13  1  1
 10 14  1  0
 14 15  2  0
 14 16  1  0
 16 17  1  0
 17 18  1  6
 18 19  1  0
 19 20  3  0
 17 21  1  0
 21 22  2  0
 21 23  1  0
M  END
$$$$

     RDKit          2D

 22 21  0  0  0  0  0  0  0  0999 V2000
    0.0000    3.0000    0.0000 N   0  0  0  0  0  0  0  0  0  0  0  0
    1.2990    2.2500    0.0000 C   0  0  0  0  0  0  0  0  0  0  0  0
    1.2990    0.7500    0.0000 C   0  0  0  0  0  0  0  0  0  0  0  0
    0.0000    0.0000    0.0000 C   0  0  0  0  0  0  0  0  0  0  0  0
    2.5981   -0.0000    0.0000 C   0  0  0  0  0  0  0  0  0  0  0  0
    2.5981    3.0000    0.0000 C   0  0  0  0  0  0  0  0  0  0  0  0
    3.8971    2.2500    0.0000 O   0  0  0  0  0  0  0  0  0  0  0  0
    2.5981    4.5000    0.0000 N   0  0  0  0  0  0  0  0  0  0  0  0
    3.8971    5.2500    0.0000 C   0  0  0  0  0  0  0  0  0  0  0  0
    3.8971    6.7500    0.0000 C   0  0  0  0  0  0  0  0  0  0  0  0
    2.5981    7.5000    0.0000 O   0  0  0  0  0  0  0  0  0  0  0  0
    5.1962    7.5000    0.0000 C   0  0  0  0  0  0  0  0  0  0  0  0
    5.1962    4.5000    0.0000 C   0  0  0  0  0  0  0  0  0  0  0  0
    5.1962    3.0000    0.0000 O   0  0  0  0  0  0  0  0  0  0  0  0
    6.4952    5.2500    0.0000 N   0  0  0  0  0  0  0  0  0  0  0  0
    7.7942    4.5000    0.0000 C   0  0  0  0  0  0  0  0  0  0  0  0
    9.0933    5.2500    0.0000 C   0  0  0  0  0  0  0  0  0  0  0  0
   10.3923    4.5000    0.0000 C   0  0  0  0  0  0  0  0  0  0  0  0
   11.6913    3.7500    0.0000 C   0  0  0  0  0  0  0  0  0  0  0  0
    7.7942    3.0000    0.0000 C   0  0  0  0  0  0  0  0  0  0  0  0
    6.4952    2.2500    0.0000 O   0  0  0  0  0  0  0  0  0  0  0  0
    9.0933    2.2500    0.0000 O   0  0  0  0  0  0  0  0  0  0  0  0
  2  1  1  6
  2  3  1  0
  3  4  1  0
  3  5  1  0
  2  6  1  0
  6  7  2  0
  6  8  1  0
  9  8  1  6
  9 10  1  0
 10 11  1  0
 10 12  1  6
  9 13  1  0
 13 14  2  0
 13 15  1  0
 15 16  1  0
 16 17  1  1
 17 18  1  0
 18 19  3  0
 16 20  1  0
 20 21  2  0
 20 22  1  0
M  END
$$$$

     RDKit          2D

 22 21  0  0  0  0  0  0  0  0999 V2000
    0.0000    3.0000    0.0000 N   0  0  0  0  0  0  0  0  0  0  0  0
    1.2990    2.2500    0.0000 C   0  0  0  0  0  0  0  0  0  0  0  0
    1.2990    0.7500    0.0000 C   0  0  0  0  0  0  0  0  0  0  0  0
    0.0000    0.0000    0.0000 C   0  0  0  0  0  0  0  0  0  0  0  0
    2.5981   -0.0000    0.0000 C   0  0  0  0  0  0  0  0  0  0  0  0
    2.5981    3.0000    0.0000 C   0  0  0  0  0  0  0  0  0  0  0  0
    3.8971    2.2500    0.0000 O   0  0  0  0  0  0  0  0  0  0  0  0
    2.5981    4.5000    0.0000 N   0  0  0  0  0  0  0  0  0  0  0  0
    3.8971    5.2500    0.0000 C   0  0  0  0  0  0  0  0  0  0  0  0
    3.8971    6.7500    0.0000 C   0  0  0  0  0  0  0  0  0  0  0  0
    2.5981    7.5000    0.0000 O   0  0  0  0  0  0  0  0  0  0  0  0
    5.1962    7.5000    0.0000 C   0  0  0  0  0  0  0  0  0  0  0  0
    5.1962    4.5000    0.0000 C   0  0  0  0  0  0  0  0  0  0  0  0
    5.1962    3.0000    0.0000 O   0  0  0  0  0  0  0  0  0  0  0  0
    6.4952    5.2500    0.0000 N   0  0  0  0  0  0  0  0  0  0  0  0
    7.7942    4.5000    0.0000 C   0  0  0  0  0  0  0  0  0  0  0  0
    9.0933    5.2500    0.0000 C   0  0  0  0  0  0  0  0  0  0  0  0
   10.3923    4.5000    0.0000 C   0  0  0  0  0  0  0  0  0  0  0  0
   11.6913    3.7500    0.0000 C   0  0  0  0  0  0  0  0  0  0  0  0
    7.7942    3.0000    0.0000 C   0  0  0  0  0  0  0  0  0  0  0  0
    6.4952    2.2500    0.0000 O   0  0  0  0  0  0  0  0  0  0  0  0
    9.0933    2.2500    0.0000 O   0  0  0  0  0  0  0  0  0  0  0  0
  2  1  1  1
  2  3  1  0
  3  4  1  0
  3  5  1  0
  2  6  1  0
  6  7  2  0
  6  8  1  0
  9  8  1  6
  9 10  1  0
 10 11  1  0
 10 12  1  6
  9 13  1  0
 13 14  2  0
 13 15  1  0
 15 16  1  0
 16 17  1  1
 17 18  1  0
 18 19  3  0
 16 20  1  0
 20 21  2  0
 20 22  1  0
M  END
$$$$

     RDKit          2D

 24 23  0  0  0  0  0  0  0  0999 V2000
    1.2990    0.7500    0.0000 N   0  0  0  0  0  0  0  0  0  0  0  0
    0.0000    0.0000    0.0000 C   0  0  0  0  0  0  0  0  0  0  0  0
    2.5981   -0.0000    0.0000 C   0  0  0  0  0  0  0  0  0  0  0  0
    3.8971    0.7500    0.0000 C   0  0  0  0  0  0  0  0  0  0  0  0
    5.1962   -0.0000    0.0000 C   0  0  0  0  0  0  0  0  0  0  0  0
    6.4952    0.7500    0.0000 C   0  0  0  0  0  0  0  0  0  0  0  0
    5.1962   -1.5000    0.0000 C   0  0  0  0  0  0  0  0  0  0  0  0
    2.5981   -1.5000    0.0000 C   0  0  0  0  0  0  0  0  0  0  0  0
    1.2990   -2.2500    0.0000 O   0  0  0  0  0  0  0  0  0  0  0  0
    3.8971   -2.2500    0.0000 N   0  0  0  0  0  0  0  0  0  0  0  0
    3.8971   -3.7500    0.0000 C   0  0  0  0  0  0  0  0  0  0  0  0
    5.1962   -4.5000    0.0000 C   0  0  0  0  0  0  0  0  0  0  0  0
    6.4952   -3.7500    0.0000 O   0  0  0  0  0  0  0  0  0  0  0  0
    5.1962   -6.0000    0.0000 C   0  0  0  0  0  0  0  0  0  0  0  0
    2.5981   -4.5000    0.0000 C   0  0  0  0  0  0  0  0  0  0  0  0
    1.2990   -3.7500    0.0000 O   0  0  0  0  0  0  0  0  0  0  0  0
    2.5981   -6.0000    0.0000 N   0  0  0  0  0  0  0  0  0  0  0  0
    1.2990   -6.7500    0.0000 C   0  0  0  0  0  0  0  0  0  0  0  0
    1.2990   -8.2500    0.0000 C   0  0  0  0  0  0  0  0  0  0  0  0
    0.0000   -9.0000    0.0000 C   0  0  0  0  0  0  0  0  0  0  0  0
   -1.2990   -9.7500    0.0000 C   0  0  0  0  0  0  0  0  0  0  0  0
    0.0000   -6.0000    0.0000 C   0  0  0  0  0  0  0  0  0  0  0  0
    0.0000   -4.5000    0.0000 O   0  0  0  0  0  0  0  0  0  0  0  0
   -1.2990   -6.7500    0.0000 O   0  0  0  0  0  0  0  0  0  0  0  0
  1  2  1  0
  1  3  1  0
  3  4  1  1
  4  5  1  0
  5  6  1  0
  5  7  1  0
  3  8  1  0
  8  9  2  0
  8 10  1  0
 11 10  1  6
 11 12  1  0
 12 13  1  0
 12 14  1  6
 11 15  1  0
 15 16  2  0
 15 17  1  0
 17 18  1  0
 18 19  1  1
 19 20  1  0
 20 21  3  0
 18 22  1  0
 22 23  2  0
 22 24  1  0
M  END
$$$$

     RDKit          2D

 24 23  0  0  0  0  0  0  0  0999 V2000
    1.2990    0.7500    0.0000 N   0  0  0  0  0  0  0  0  0  0  0  0
    0.0000    0.0000    0.0000 C   0  0  0  0  0  0  0  0  0  0  0  0
    2.5981   -0.0000    0.0000 C   0  0  0  0  0  0  0  0  0  0  0  0
    3.8971    0.7500    0.0000 C   0  0  0  0  0  0  0  0  0  0  0  0
    5.1962   -0.0000    0.0000 C   0  0  0  0  0  0  0  0  0  0  0  0
    6.4952    0.7500    0.0000 C   0  0  0  0  0  0  0  0  0  0  0  0
    5.1962   -1.5000    0.0000 C   0  0  0  0  0  0  0  0  0  0  0  0
    2.5981   -1.5000    0.0000 C   0  0  0  0  0  0  0  0  0  0  0  0
    1.2990   -2.2500    0.0000 O   0  0  0  0  0  0  0  0  0  0  0  0
    3.8971   -2.2500    0.0000 N   0  0  0  0  0  0  0  0  0  0  0  0
    3.8971   -3.7500    0.0000 C   0  0  0  0  0  0  0  0  0  0  0  0
    5.1962   -4.5000    0.0000 C   0  0  0  0  0  0  0  0  0  0  0  0
    6.4952   -3.7500    0.0000 O   0  0  0  0  0  0  0  0  0  0  0  0
    5.1962   -6.0000    0.0000 C   0  0  0  0  0  0  0  0  0  0  0  0
    2.5981   -4.5000    0.0000 C   0  0  0  0  0  0  0  0  0  0  0  0
    1.2990   -3.7500    0.0000 O   0  0  0  0  0  0  0  0  0  0  0  0
    2.5981   -6.0000    0.0000 N   0  0  0  0  0  0  0  0  0  0  0  0
    1.2990   -6.7500    0.0000 C   0  0  0  0  0  0  0  0  0  0  0  0
    1.2990   -8.2500    0.0000 C   0  0  0  0  0  0  0  0  0  0  0  0
    0.0000   -9.0000    0.0000 C   0  0  0  0  0  0  0  0  0  0  0  0
   -1.2990   -9.7500    0.0000 C   0  0  0  0  0  0  0  0  0  0  0  0
    0.0000   -6.0000    0.0000 C   0  0  0  0  0  0  0  0  0  0  0  0
    0.0000   -4.5000    0.0000 O   0  0  0  0  0  0  0  0  0  0  0  0
   -1.2990   -6.7500    0.0000 O   0  0  0  0  0  0  0  0  0  0  0  0
  1  2  1  0
  1  3  1  0
  3  4  1  6
  4  5  1  0
  5  6  1  0
  5  7  1  0
  3  8  1  0
  8  9  2  0
  8 10  1  0
 11 10  1  6
 11 12  1  0
 12 13  1  0
 12 14  1  6
 11 15  1  0
 15 16  2  0
 15 17  1  0
 17 18  1  0
 18 19  1  1
 19 20  1  0
 20 21  3  0
 18 22  1  0
 22 23  2  0
 22 24  1  0
M  END
$$$$

     RDKit          2D

 26 26  0  0  0  0  0  0  0  0999 V2000
    3.0000   -2.5981    0.0000 N   0  0  0  0  0  0  0  0  0  0  0  0
    3.7500   -1.2990    0.0000 C   0  0  0  0  0  0  0  0  0  0  0  0
    3.0000    0.0000    0.0000 C   0  0  0  0  0  0  0  0  0  0  0  0
    1.5000    0.0000    0.0000 C   0  0  0  0  0  0  0  0  0  0  0  0
    0.7500   -1.2990    0.0000 C   0  0  0  0  0  0  0  0  0  0  0  0
   -0.7500   -1.2990    0.0000 C   0  0  0  0  0  0  0  0  0  0  0  0
   -1.5000    0.0000    0.0000 C   0  0  0  0  0  0  0  0  0  0  0  0
   -0.7500    1.2990    0.0000 C   0  0  0  0  0  0  0  0  0  0  0  0
    0.7500    1.2990    0.0000 C   0  0  0  0  0  0  0  0  0  0  0  0
    5.2500   -1.2990    0.0000 C   0  0  0  0  0  0  0  0  0  0  0  0
    6.0000    0.0000    0.0000 O   0  0  0  0  0  0  0  0  0  0  0  0
    6.0000   -2.5981    0.0000 N   0  0  0  0  0  0  0  0  0  0  0  0
    7.5000   -2.5981    0.0000 C   0  0  0  0  0  0  0  0  0  0  0  0
    8.2500   -3.8971    0.0000 C   0  0  0  0  0  0  0  0  0  0  0  0
    7.5000   -5.1962    0.0000 O   0  0  0  0  0  0  0  0  0  0  0  0
    9.7500   -3.8971    0.0000 C   0  0  0  0  0  0  0  0  0  0  0  0
    8.2500   -1.2990    0.0000 C   0  0  0  0  0  0  0  0  0  0  0  0
    7.5000    0.0000    0.0000 O   0  0  0  0  0  0  0  0  0  0  0  0
    9.7500   -1.2990    0.0000 N   0  0  0  0  0  0  0  0  0  0  0  0
   10.5000    0.0000    0.0000 C   0  0  0  0  0  0  0  0  0  0  0  0
   12.0000    0.0000    0.0000 C   0  0  0  0  0  0  0  0  0  0  0  0
   12.7500    1.2990    0.0000 C   0  0  0  0  0  0  0  0  0  0  0  0
   13.5000    2.5981    0.0000 C   0  0  0  0  0  0  0  0  0  0  0  0
    9.7500    1.2990    0.0000 C   0  0  0  0  0  0  0  0  0  0  0  0
    8.2500    1.2990    0.0000 O   0  0  0  0  0  0  0  0  0  0  0  0
   10.5000    2.5981    0.0000 O   0  0  0  0  0  0  0  0  0  0  0  0
  2  1  1  1
  2  3  1  0
  3  4  1  0
  4  5  2  0
  5  6  1  0
  6  7  2  0
  7  8  1  0
  8  9  2  0
  2 10  1  0
 10 11  2  0
 10 12  1  0
 13 12  1  1
 13 14  1  0
 14 15  1  0
 14 16  1  1
 13 17  1  0
 17 18  2  0
 17 19  1  0
 19 20  1  0
 20 21  1  6
 21 22  1  0
 22 23  3  0
 20 24  1  0
 24 25  2  0
 24 26  1  0
  9  4  1  0
M  END
$$$$

     RDKit          2D

 26 26  0  0  0  0  0  0  0  0999 V2000
    3.0000   -2.5981    0.0000 N   0  0  0  0  0  0  0  0  0  0  0  0
    3.7500   -1.2990    0.0000 C   0  0  0  0  0  0  0  0  0  0  0  0
    3.0000    0.0000    0.0000 C   0  0  0  0  0  0  0  0  0  0  0  0
    1.5000    0.0000    0.0000 C   0  0  0  0  0  0  0  0  0  0  0  0
    0.7500   -1.2990    0.0000 C   0  0  0  0  0  0  0  0  0  0  0  0
   -0.7500   -1.2990    0.0000 C   0  0  0  0  0  0  0  0  0  0  0  0
   -1.5000    0.0000    0.0000 C   0  0  0  0  0  0  0  0  0  0  0  0
   -0.7500    1.2990    0.0000 C   0  0  0  0  0  0  0  0  0  0  0  0
    0.7500    1.2990    0.0000 C   0  0  0  0  0  0  0  0  0  0  0  0
    5.2500   -1.2990    0.0000 C   0  0  0  0  0  0  0  0  0  0  0  0
    6.0000    0.0000    0.0000 O   0  0  0  0  0  0  0  0  0  0  0  0
    6.0000   -2.5981    0.0000 N   0  0  0  0  0  0  0  0  0  0  0  0
    7.5000   -2.5981    0.0000 C   0  0  0  0  0  0  0  0  0  0  0  0
    8.2500   -3.8971    0.0000 C   0  0  0  0  0  0  0  0  0  0  0  0
    7.5000   -5.1962    0.0000 O   0  0  0  0  0  0  0  0  0  0  0  0
    9.7500   -3.8971    0.0000 C   0  0  0  0  0  0  0  0  0  0  0  0
    8.2500   -1.2990    0.0000 C   0  0  0  0  0  0  0  0  0  0  0  0
    7.5000    0.0000    0.0000 O   0  0  0  0  0  0  0  0  0  0  0  0
    9.7500   -1.2990    0.0000 N   0  0  0  0  0  0  0  0  0  0  0  0
   10.5000    0.0000    0.0000 C   0  0  0  0  0  0  0  0  0  0  0  0
   12.0000    0.0000    0.0000 C   0  0  0  0  0  0  0  0  0  0  0  0
   12.7500    1.2990    0.0000 C   0  0  0  0  0  0  0  0  0  0  0  0
   13.5000    2.5981    0.0000 C   0  0  0  0  0  0  0  0  0  0  0  0
    9.7500    1.2990    0.0000 C   0  0  0  0  0  0  0  0  0  0  0  0
    8.2500    1.2990    0.0000 O   0  0  0  0  0  0  0  0  0  0  0  0
   10.5000    2.5981    0.0000 O   0  0  0  0  0  0  0  0  0  0  0  0
  2  1  1  6
  2  3  1  0
  3  4  1  0
  4  5  2  0
  5  6  1  0
  6  7  2  0
  7  8  1  0
  8  9  2  0
  2 10  1  0
 10 11  2  0
 10 12  1  0
 13 12  1  1
 13 14  1  0
 14 15  1  0
 14 16  1  1
 13 17  1  0
 17 18  2  0
 17 19  1  0
 19 20  1  0
 20 21  1  6
 21 22  1  0
 22 23  3  0
 20 24  1  0
 24 25  2  0
 24 26  1  0
  9  4  1  0
M  END
$$$$

     RDKit          2D

 27 27  0  0  0  0  0  0  0  0999 V2000
    3.0000   -2.5981    0.0000 N   0  0  0  0  0  0  0  0  0  0  0  0
    3.7500   -3.8971    0.0000 C   0  0  0  0  0  0  0  0  0  0  0  0
    3.7500   -1.2990    0.0000 C   0  0  0  0  0  0  0  0  0  0  0  0
    3.0000    0.0000    0.0000 C   0  0  0  0  0  0  0  0  0  0  0  0
    1.5000    0.0000    0.0000 C   0  0  0  0  0  0  0  0  0  0  0  0
    0.7500   -1.2990    0.0000 C   0  0  0  0  0  0  0  0  0  0  0  0
   -0.7500   -1.2990    0.0000 C   0  0  0  0  0  0  0  0  0  0  0  0
   -1.5000    0.0000    0.0000 C   0  0  0  0  0  0  0  0  0  0  0  0
   -0.7500    1.2990    0.0000 C   0  0  0  0  0  0  0  0  0  0  0  0
    0.7500    1.2990    0.0000 C   0  0  0  0  0  0  0  0  0  0  0  0
    5.2500   -1.2990    0.0000 C   0  0  0  0  0  0  0  0  0  0  0  0
    6.0000    0.0000    0.0000 O   0  0  0  0  0  0  0  0  0  0  0  0
    6.0000   -2.5981    0.0000 N   0  0  0  0  0  0  0  0  0  0  0  0
    7.5000   -2.5981    0.0000 C   0  0  0  0  0  0  0  0  0  0  0  0
    8.2500   -3.8971    0.0000 C   0  0  0  0  0  0  0  0  0  0  0  0
    7.5000   -5.1962    0.0000 O   0  0  0  0  0  0  0  0  0  0  0  0
    9.7500   -3.8971    0.0000 C   0  0  0  0  0  0  0  0  0  0  0  0
    8.2500   -1.2990    0.0000 C   0  0  0  0  0  0  0  0  0  0  0  0
    7.5000    0.0000    0.0000 O   0  0  0  0  0  0  0  0  0  0  0  0
    9.7500   -1.2990    0.0000 N   0  0  0  0  0  0  0  0  0  0  0  0
   10.5000    0.0000    0.0000 C   0  0  0  0  0  0  0  0  0  0  0  0
   12.0000    0.0000    0.0000 C   0  0  0  0  0  0  0  0  0  0  0  0
   12.7500    1.2990    0.0000 C   0  0  0  0  0  0  0  0  0  0  0  0
   13.5000    2.5981    0.0000 C   0  0  0  0  0  0  0  0  0  0  0  0
    9.7500    1.2990    0.0000 C   0  0  0  0  0  0  0  0  0  0  0  0
    8.2500    1.2990    0.0000 O   0  0  0  0  0  0  0  0  0  0  0  0
   10.5000    2.5981    0.0000 O   0  0  0  0  0  0  0  0  0  0  0  0
  1  2  1  0
  1  3  1  0
  3  4  1  1
  4  5  1  0
  5  6  2  0
  6  7  1  0
  7  8  2  0
  8  9  1  0
  9 10  2  0
  3 11  1  0
 11 12  2  0
 11 13  1  0
 14 13  1  1
 14 15  1  0
 15 16  1  0
 15 17  1  1
 14 18  1  0
 18 19  2  0
 18 20  1  0
 20 21  1  0
 21 22  1  6
 22 23  1  0
 23 24  3  0
 21 25  1  0
 25 26  2  0
 25 27  1  0
 10  5  1  0
M  END
$$$$

     RDKit          2D

 27 27  0  0  0  0  0  0  0  0999 V2000
    3.0000   -2.5981    0.0000 N   0  0  0  0  0  0  0  0  0  0  0  0
    3.7500   -3.8971    0.0000 C   0  0  0  0  0  0  0  0  0  0  0  0
    3.7500   -1.2990    0.0000 C   0  0  0  0  0  0  0  0  0  0  0  0
    3.0000    0.0000    0.0000 C   0  0  0  0  0  0  0  0  0  0  0  0
    1.5000    0.0000    0.0000 C   0  0  0  0  0  0  0  0  0  0  0  0
    0.7500   -1.2990    0.0000 C   0  0  0  0  0  0  0  0  0  0  0  0
   -0.7500   -1.2990    0.0000 C   0  0  0  0  0  0  0  0  0  0  0  0
   -1.5000    0.0000    0.0000 C   0  0  0  0  0  0  0  0  0  0  0  0
   -0.7500    1.2990    0.0000 C   0  0  0  0  0  0  0  0  0  0  0  0
    0.7500    1.2990    0.0000 C   0  0  0  0  0  0  0  0  0  0  0  0
    5.2500   -1.2990    0.0000 C   0  0  0  0  0  0  0  0  0  0  0  0
    6.0000    0.0000    0.0000 O   0  0  0  0  0  0  0  0  0  0  0  0
    6.0000   -2.5981    0.0000 N   0  0  0  0  0  0  0  0  0  0  0  0
    7.5000   -2.5981    0.0000 C   0  0  0  0  0  0  0  0  0  0  0  0
    8.2500   -3.8971    0.0000 C   0  0  0  0  0  0  0  0  0  0  0  0
    7.5000   -5.1962    0.0000 O   0  0  0  0  0  0  0  0  0  0  0  0
    9.7500   -3.8971    0.0000 C   0  0  0  0  0  0  0  0  0  0  0  0
    8.2500   -1.2990    0.0000 C   0  0  0  0  0  0  0  0  0  0  0  0
    7.5000    0.0000    0.0000 O   0  0  0  0  0  0  0  0  0  0  0  0
    9.7500   -1.2990    0.0000 N   0  0  0  0  0  0  0  0  0  0  0  0
   10.5000    0.0000    0.0000 C   0  0  0  0  0  0  0  0  0  0  0  0
   12.0000    0.0000    0.0000 C   0  0  0  0  0  0  0  0  0  0  0  0
   12.7500    1.2990    0.0000 C   0  0  0  0  0  0  0  0  0  0  0  0
   13.5000    2.5981    0.0000 C   0  0  0  0  0  0  0  0  0  0  0  0
    9.7500    1.2990    0.0000 C   0  0  0  0  0  0  0  0  0  0  0  0
    8.2500    1.2990    0.0000 O   0  0  0  0  0  0  0  0  0  0  0  0
   10.5000    2.5981    0.0000 O   0  0  0  0  0  0  0  0  0  0  0  0
  1  2  1  0
  1  3  1  0
  3  4  1  6
  4  5  1  0
  5  6  2  0
  6  7  1  0
  7  8  2  0
  8  9  1  0
  9 10  2  0
  3 11  1  0
 11 12  2  0
 11 13  1  0
 14 13  1  1
 14 15  1  0
 15 16  1  0
 15 17  1  1
 14 18  1  0
 18 19  2  0
 18 20  1  0
 20 21  1  0
 21 22  1  6
 22 23  1  0
 23 24  3  0
 21 25  1  0
 25 26  2  0
 25 27  1  0
 10  5  1  0
M  END
$$$$

     RDKit          2D

 22 21  0  0  0  0  0  0  0  0999 V2000
    2.5981   -1.5000    0.0000 N   0  0  0  0  0  0  0  0  0  0  0  0
    2.5981   -0.0000    0.0000 C   0  0  0  0  0  0  0  0  0  0  0  0
    1.2990    0.7500    0.0000 C   0  0  0  0  0  0  0  0  0  0  0  0
    1.2990    2.2500    0.0000 O   0  0  0  0  0  0  0  0  0  0  0  0
    0.0000    0.0000    0.0000 C   0  0  0  0  0  0  0  0  0  0  0  0
    3.8971    0.7500    0.0000 C   0  0  0  0  0  0  0  0  0  0  0  0
    3.8971    2.2500    0.0000 O   0  0  0  0  0  0  0  0  0  0  0  0
    5.1962   -0.0000    0.0000 N   0  0  0  0  0  0  0  0  0  0  0  0
    6.4952    0.7500    0.0000 C   0  0  0  0  0  0  0  0  0  0  0  0
    7.7942   -0.0000    0.0000 C   0  0  0  0  0  0  0  0  0  0  0  0
    7.7942   -1.5000    0.0000 O   0  0  0  0  0  0  0  0  0  0  0  0
    9.0933    0.7500    0.0000 C   0  0  0  0  0  0  0  0  0  0  0  0
    6.4952    2.2500    0.0000 C   0  0  0  0  0  0  0  0  0  0  0  0
    5.1962    3.0000    0.0000 O   0  0  0  0  0  0  0  0  0  0  0  0
    7.7942    3.0000    0.0000 N   0  0  0  0  0  0  0  0  0  0  0  0
    7.7942    4.5000    0.0000 C   0  0  0  0  0  0  0  0  0  0  0  0
    9.0933    5.2500    0.0000 C   0  0  0  0  0  0  0  0  0  0  0  0
    9.0933    6.7500    0.0000 C   0  0  0  0  0  0  0  0  0  0  0  0
    9.0933    8.2500    0.0000 C   0  0  0  0  0  0  0  0  0  0  0  0
    6.4952    5.2500    0.0000 C   0  0  0  0  0  0  0  0  0  0  0  0
    5.1962    4.5000    0.0000 O   0  0  0  0  0  0  0  0  0  0  0  0
    6.4952    6.7500    0.0000 O   0  0  0  0  0  0  0  0  0  0  0  0
  2  1  1  1
  2  3  1  0
  3  4  1  0
  3  5  1  1
  2  6  1  0
  6  7  2  0
  6  8  1  0
  9  8  1  1
  9 10  1  0
 10 11  1  0
 10 12  1  1
  9 13  1  0
 13 14  2  0
 13 15  1  0
 15 16  1  0
 16 17  1  6
 17 18  1  0
 18 19  3  0
 16 20  1  0
 20 21  2  0
 20 22  1  0
M  END
$$$$

     RDKit          2D

 22 21  0  0  0  0  0  0  0  0999 V2000
    2.5981   -1.5000    0.0000 N   0  0  0  0  0  0  0  0  0  0  0  0
    2.5981   -0.0000    0.0000 C   0  0  0  0  0  0  0  0  0  0  0  0
    1.2990    0.7500    0.0000 C   0  0  0  0  0  0  0  0  0  0  0  0
    1.2990    2.2500    0.0000 O   0  0  0  0  0  0  0  0  0  0  0  0
    0.0000    0.0000    0.0000 C   0  0  0  0  0  0  0  0  0  0  0  0
    3.8971    0.7500    0.0000 C   0  0  0  0  0  0  0  0  0  0  0  0
    3.8971    2.2500    0.0000 O   0  0  0  0  0  0  0  0  0  0  0  0
    5.1962   -0.0000    0.0000 N   0  0  0  0  0  0  0  0  0  0  0  0
    6.4952    0.7500    0.0000 C   0  0  0  0  0  0  0  0  0  0  0  0
    7.7942   -0.0000    0.0000 C   0  0  0  0  0  0  0  0  0  0  0  0
    7.7942   -1.5000    0.0000 O   0  0  0  0  0  0  0  0  0  0  0  0
    9.0933    0.7500    0.0000 C   0  0  0  0  0  0  0  0  0  0  0  0
    6.4952    2.2500    0.0000 C   0  0  0  0  0  0  0  0  0  0  0  0
    5.1962    3.0000    0.0000 O   0  0  0  0  0  0  0  0  0  0  0  0
    7.7942    3.0000    0.0000 N   0  0  0  0  0  0  0  0  0  0  0  0
    7.7942    4.5000    0.0000 C   0  0  0  0  0  0  0  0  0  0  0  0
    9.0933    5.2500    0.0000 C   0  0  0  0  0  0  0  0  0  0  0  0
    9.0933    6.7500    0.0000 C   0  0  0  0  0  0  0  0  0  0  0  0
    9.0933    8.2500    0.0000 C   0  0  0  0  0  0  0  0  0  0  0  0
    6.4952    5.2500    0.0000 C   0  0  0  0  0  0  0  0  0  0  0  0
    5.1962    4.5000    0.0000 O   0  0  0  0  0  0  0  0  0  0  0  0
    6.4952    6.7500    0.0000 O   0  0  0  0  0  0  0  0  0  0  0  0
  2  1  1  6
  2  3  1  0
  3  4  1  0
  3  5  1  1
  2  6  1  0
  6  7  2  0
  6  8  1  0
  9  8  1  1
  9 10  1  0
 10 11  1  0
 10 12  1  1
  9 13  1  0
 13 14  2  0
 13 15  1  0
 15 16  1  0
 16 17  1  6
 17 18  1  0
 18 19  3  0
 16 20  1  0
 20 21  2  0
 20 22  1  0
M  END
$$$$

     RDKit          2D

 23 22  0  0  0  0  0  0  0  0999 V2000
    1.2990    0.7500    0.0000 N   0  0  0  0  0  0  0  0  0  0  0  0
    0.0000    0.0000    0.0000 C   0  0  0  0  0  0  0  0  0  0  0  0
    2.5981   -0.0000    0.0000 C   0  0  0  0  0  0  0  0  0  0  0  0
    3.8971    0.7500    0.0000 C   0  0  0  0  0  0  0  0  0  0  0  0
    3.8971    2.2500    0.0000 O   0  0  0  0  0  0  0  0  0  0  0  0
    5.1962   -0.0000    0.0000 C   0  0  0  0  0  0  0  0  0  0  0  0
    2.5981   -1.5000    0.0000 C   0  0  0  0  0  0  0  0  0  0  0  0
    1.2990   -2.2500    0.0000 O   0  0  0  0  0  0  0  0  0  0  0  0
    3.8971   -2.2500    0.0000 N   0  0  0  0  0  0  0  0  0  0  0  0
    3.8971   -3.7500    0.0000 C   0  0  0  0  0  0  0  0  0  0  0  0
    5.1962   -4.5000    0.0000 C   0  0  0  0  0  0  0  0  0  0  0  0
    6.4952   -3.7500    0.0000 O   0  0  0  0  0  0  0  0  0  0  0  0
    5.1962   -6.0000    0.0000 C   0  0  0  0  0  0  0  0  0  0  0  0
    2.5981   -4.5000    0.0000 C   0  0  0  0  0  0  0  0  0  0  0  0
    1.2990   -3.7500    0.0000 O   0  0  0  0  0  0  0  0  0  0  0  0
    2.5981   -6.0000    0.0000 N   0  0  0  0  0  0  0  0  0  0  0  0
    1.2990   -6.7500    0.0000 C   0  0  0  0  0  0  0  0  0  0  0  0
    1.2990   -8.2500    0.0000 C   0  0  0  0  0  0  0  0  0  0  0  0
    0.0000   -9.0000    0.0000 C   0  0  0  0  0  0  0  0  0  0  0  0
   -1.2990   -9.7500    0.0000 C   0  0  0  0  0  0  0  0  0  0  0  0
    0.0000   -6.0000    0.0000 C   0  0  0  0  0  0  0  0  0  0  0  0
    0.0000   -4.5000    0.0000 O   0  0  0  0  0  0  0  0  0  0  0  0
   -1.2990   -6.7500    0.0000 O   0  0  0  0  0  0  0  0  0  0  0  0
  1  2  1  0
  3  1  1  1
  3  4  1  0
  4  5  1  0
  4  6  1  6
  3  7  1  0
  7  8  2  0
  7  9  1  0
 10  9  1  6
 10 11  1  0
 11 12  1  0
 11 13  1  6
 10 14  1  0
 14 15  2  0
 14 16  1  0
 16 17  1  0
 17 18  1  1
 18 19  1  0
 19 20  3  0
 17 21  1  0
 21 22  2  0
 21 23  1  0
M  END
$$$$

     RDKit          2D

 23 22  0  0  0  0  0  0  0  0999 V2000
    1.2990    0.7500    0.0000 N   0  0  0  0  0  0  0  0  0  0  0  0
    0.0000    0.0000    0.0000 C   0  0  0  0  0  0  0  0  0  0  0  0
    2.5981   -0.0000    0.0000 C   0  0  0  0  0  0  0  0  0  0  0  0
    3.8971    0.7500    0.0000 C   0  0  0  0  0  0  0  0  0  0  0  0
    3.8971    2.2500    0.0000 O   0  0  0  0  0  0  0  0  0  0  0  0
    5.1962   -0.0000    0.0000 C   0  0  0  0  0  0  0  0  0  0  0  0
    2.5981   -1.5000    0.0000 C   0  0  0  0  0  0  0  0  0  0  0  0
    1.2990   -2.2500    0.0000 O   0  0  0  0  0  0  0  0  0  0  0  0
    3.8971   -2.2500    0.0000 N   0  0  0  0  0  0  0  0  0  0  0  0
    3.8971   -3.7500    0.0000 C   0  0  0  0  0  0  0  0  0  0  0  0
    5.1962   -4.5000    0.0000 C   0  0  0  0  0  0  0  0  0  0  0  0
    6.4952   -3.7500    0.0000 O   0  0  0  0  0  0  0  0  0  0  0  0
    5.1962   -6.0000    0.0000 C   0  0  0  0  0  0  0  0  0  0  0  0
    2.5981   -4.5000    0.0000 C   0  0  0  0  0  0  0  0  0  0  0  0
    1.2990   -3.7500    0.0000 O   0  0  0  0  0  0  0  0  0  0  0  0
    2.5981   -6.0000    0.0000 N   0  0  0  0  0  0  0  0  0  0  0  0
    1.2990   -6.7500    0.0000 C   0  0  0  0  0  0  0  0  0  0  0  0
    1.2990   -8.2500    0.0000 C   0  0  0  0  0  0  0  0  0  0  0  0
    0.0000   -9.0000    0.0000 C   0  0  0  0  0  0  0  0  0  0  0  0
   -1.2990   -9.7500    0.0000 C   0  0  0  0  0  0  0  0  0  0  0  0
    0.0000   -6.0000    0.0000 C   0  0  0  0  0  0  0  0  0  0  0  0
    0.0000   -4.5000    0.0000 O   0  0  0  0  0  0  0  0  0  0  0  0
   -1.2990   -6.7500    0.0000 O   0  0  0  0  0  0  0  0  0  0  0  0
  1  2  1  0
  3  1  1  6
  3  4  1  0
  4  5  1  0
  4  6  1  6
  3  7  1  0
  7  8  2  0
  7  9  1  0
 10  9  1  6
 10 11  1  0
 11 12  1  0
 11 13  1  6
 10 14  1  0
 14 15  2  0
 14 16  1  0
 16 17  1  0
 17 18  1  1
 18 19  1  0
 19 20  3  0
 17 21  1  0
 21 22  2  0
 21 23  1  0
M  END
$$$$

     RDKit          2D

 23 22  0  0  0  0  0  0  0  0999 V2000
    2.5981    3.0000    0.0000 N   0  0  0  0  0  0  0  0  0  0  0  0
    1.2990    2.2500    0.0000 C   0  0  0  0  0  0  0  0  0  0  0  0
    1.2990    0.7500    0.0000 C   0  0  0  0  0  0  0  0  0  0  0  0
    0.0000    0.0000    0.0000 C   0  0  0  0  0  0  0  0  0  0  0  0
    2.5981   -0.0000    0.0000 C   0  0  0  0  0  0  0  0  0  0  0  0
    2.5981    4.5000    0.0000 C   0  0  0  0  0  0  0  0  0  0  0  0
    3.8971    5.2500    0.0000 C   0  0  0  0  0  0  0  0  0  0  0  0
    5.1962    4.5000    0.0000 O   0  0  0  0  0  0  0  0  0  0  0  0
    3.8971    6.7500    0.0000 N   0  0  0  0  0  0  0  0  0  0  0  0
    5.1962    7.5000    0.0000 C   0  0  0  0  0  0  0  0  0  0  0  0
    5.1962    9.0000    0.0000 C   0  0  0  0  0  0  0  0  0  0  0  0
    3.8971    9.7500    0.0000 O   0  0  0  0  0  0  0  0  0  0  0  0
    6.4952    9.7500    0.0000 C   0  0  0  0  0  0  0  0  0  0  0  0
    6.4952    6.7500    0.0000 C   0  0  0  0  0  0  0  0  0  0  0  0
    6.4952    5.2500    0.0000 O   0  0  0  0  0  0  0  0  0  0  0  0
    7.7942    7.5000    0.0000 N   0  0  0  0  0  0  0  0  0  0  0  0
    9.0933    6.7500    0.0000 C   0  0  0  0  0  0  0  0  0  0  0  0
   10.3923    7.5000    0.0000 C   0  0  0  0  0  0  0  0  0  0  0  0
   11.6913    6.7500    0.0000 C   0  0  0  0  0  0  0  0  0  0  0  0
   12.9904    6.0000    0.0000 C   0  0  0  0  0  0  0  0  0  0  0  0
    9.0933    5.2500    0.0000 C   0  0  0  0  0  0  0  0  0  0  0  0
    7.7942    4.5000    0.0000 O   0  0  0  0  0  0  0  0  0  0  0  0
   10.3923    4.5000    0.0000 O   0  0  0  0  0  0  0  0  0  0  0  0
  1  2  1  0
  2  3  1  0
  3  4  1  0
  3  5  1  0
  1  6  1  0
  6  7  1  0
  7  8  2  0
  7  9  1  0
 10  9  1  6
 10 11  1  0
 11 12  1  0
 11 13  1  6
 10 14  1  0
 14 15  2  0
 14 16  1  0
 16 17  1  0
 17 18  1  1
 18 19  1  0
 19 20  3  0
 17 21  1  0
 21 22  2  0
 21 23  1  0
M  END
$$$$

     RDKit          2D

 26 25  0  0  0  0  0  0  0  0999 V2000
    3.8971    6.7500    0.0000 N   0  0  0  0  0  0  0  0  0  0  0  0
    3.8971    5.2500    0.0000 C   0  0  0  0  0  0  0  0  0  0  0  0
    2.5981    4.5000    0.0000 C   0  0  0  0  0  0  0  0  0  0  0  0
    2.5981    3.0000    0.0000 C   0  0  0  0  0  0  0  0  0  0  0  0
    1.2990    2.2500    0.0000 O   0  0  0  0  0  0  0  0  0  0  0  0
    1.2990    0.7500    0.0000 C   0  0  0  0  0  0  0  0  0  0  0  0
    0.0000    0.0000    0.0000 C   0  0  0  0  0  0  0  0  0  0  0  0
    2.5981   -0.0000    0.0000 C   0  0  0  0  0  0  0  0  0  0  0  0
    5.1962    7.5000    0.0000 C   0  0  0  0  0  0  0  0  0  0  0  0
    5.1962    9.0000    0.0000 C   0  0  0  0  0  0  0  0  0  0  0  0
    3.8971    9.7500    0.0000 O   0  0  0  0  0  0  0  0  0  0  0  0
    6.4952    9.7500    0.0000 N   0  0  0  0  0  0  0  0  0  0  0  0
    6.4952   11.2500    0.0000 C   0  0  0  0  0  0  0  0  0  0  0  0
    7.7942   12.0000    0.0000 C   0  0  0  0  0  0  0  0  0  0  0  0
    9.0933   11.2500    0.0000 O   0  0  0  0  0  0  0  0  0  0  0  0
    7.7942   13.5000    0.0000 C   0  0  0  0  0  0  0  0  0  0  0  0
    5.1962   12.0000    0.0000 C   0  0  0  0  0  0  0  0  0  0  0  0
    3.8971   11.2500    0.0000 O   0  0  0  0  0  0  0  0  0  0  0  0
    5.1962   13.5000    0.0000 N   0  0  0  0  0  0  0  0  0  0  0  0
    3.8971   14.2500    0.0000 C   0  0  0  0  0  0  0  0  0  0  0  0
    3.8971   15.7500    0.0000 C   0  0  0  0  0  0  0  0  0  0  0  0
    2.5981   16.5000    0.0000 C   0  0  0  0  0  0  0  0  0  0  0  0
    1.2990   17.2500    0.0000 C   0  0  0  0  0  0  0  0  0  0  0  0
    2.5981   13.5000    0.0000 C   0  0  0  0  0  0  0  0  0  0  0  0
    2.5981   12.0000    0.0000 O   0  0  0  0  0  0  0  0  0  0  0  0
    1.2990   14.2500    0.0000 O   0  0  0  0  0  0  0  0  0  0  0  0
  1  2  1  0
  2  3  1  0
  3  4  1  0
  4  5  1  0
  5  6  1  0
  6  7  1  0
  6  8  1  0
  1  9  1  0
  9 10  1  0
 10 11  2  0
 10 12  1  0
 13 12  1  1
 13 14  1  0
 14 15  1  0
 14 16  1  1
 13 17  1  0
 17 18  2  0
 17 19  1  0
 19 20  1  0
 20 21  1  6
 21 22  1  0
 22 23  3  0
 20 24  1  0
 24 25  2  0
 24 26  1  0
M  END
$$$$

     RDKit          2D

 28 28  0  0  0  0  0  0  0  0999 V2000
    6.0000   -2.5981    0.0000 N   0  0  0  0  0  0  0  0  0  0  0  0
    5.2500   -1.2990    0.0000 C   0  0  0  0  0  0  0  0  0  0  0  0
    3.7500   -1.2990    0.0000 C   0  0  0  0  0  0  0  0  0  0  0  0
    3.0000    0.0000    0.0000 O   0  0  0  0  0  0  0  0  0  0  0  0
    1.5000    0.0000    0.0000 C   0  0  0  0  0  0  0  0  0  0  0  0
    0.7500   -1.2990    0.0000 C   0  0  0  0  0  0  0  0  0  0  0  0
   -0.7500   -1.2990    0.0000 C   0  0  0  0  0  0  0  0  0  0  0  0
   -1.5000    0.0000    0.0000 C   0  0  0  0  0  0  0  0  0  0  0  0
   -0.7500    1.2990    0.0000 C   0  0  0  0  0  0  0  0  0  0  0  0
    0.7500    1.2990    0.0000 C   0  0  0  0  0  0  0  0  0  0  0  0
    7.5000   -2.5981    0.0000 C   0  0  0  0  0  0  0  0  0  0  0  0
    8.2500   -3.8971    0.0000 C   0  0  0  0  0  0  0  0  0  0  0  0
    7.5000   -5.1962    0.0000 O   0  0  0  0  0  0  0  0  0  0  0  0
    9.7500   -3.8971    0.0000 N   0  0  0  0  0  0  0  0  0  0  0  0
   10.5000   -5.1962    0.0000 C   0  0  0  0  0  0  0  0  0  0  0  0
   12.0000   -5.1962    0.0000 C   0  0  0  0  0  0  0  0  0  0  0  0
   12.7500   -3.8971    0.0000 O   0  0  0  0  0  0  0  0  0  0  0  0
   12.7500   -6.4952    0.0000 C   0  0  0  0  0  0  0  0  0  0  0  0
    9.7500   -6.4952    0.0000 C   0  0  0  0  0  0  0  0  0  0  0  0
    8.2500   -6.4952    0.0000 O   0  0  0  0  0  0  0  0  0  0  0  0
   10.5000   -7.7942    0.0000 N   0  0  0  0  0  0  0  0  0  0  0  0
    9.7500   -9.0933    0.0000 C   0  0  0  0  0  0  0  0  0  0  0  0
   10.5000  -10.3923    0.0000 C   0  0  0  0  0  0  0  0  0  0  0  0
    9.7500  -11.6913    0.0000 C   0  0  0  0  0  0  0  0  0  0  0  0
    9.0000  -12.9904    0.0000 C   0  0  0  0  0  0  0  0  0  0  0  0
    8.2500   -9.0933    0.0000 C   0  0  0  0  0  0  0  0  0  0  0  0
    7.5000   -7.7942    0.0000 O   0  0  0  0  0  0  0  0  0  0  0  0
    7.5000  -10.3923    0.0000 O   0  0  0  0  0  0  0  0  0  0  0  0
  1  2  1  0
  2  3  1  0
  3  4  1  0
  4  5  1  0
  5  6  2  0
  6  7  1  0
  7  8  2  0
  8  9  1  0
  9 10  2  0
  1 11  1  0
 11 12  1  0
 12 13  2  0
 12 14  1  0
 15 14  1  6
 15 16  1  0
 16 17  1  0
 16 18  1  6
 15 19  1  0
 19 20  2  0
 19 21  1  0
 21 22  1  0
 22 23  1  1
 23 24  1  0
 24 25  3  0
 22 26  1  0
 26 27  2  0
 26 28  1  0
 10  5  1  0
M  END
$$$$

     RDKit          2D

 31 31  0  0  0  0  0  0  0  0999 V2000
    5.2500   -1.2990    0.0000 N   0  0  0  0  0  0  0  0  0  0  0  0
    3.7500   -1.2990    0.0000 C   0  0  0  0  0  0  0  0  0  0  0  0
    3.0000    0.0000    0.0000 C   0  0  0  0  0  0  0  0  0  0  0  0
    1.5000    0.0000    0.0000 C   0  0  0  0  0  0  0  0  0  0  0  0
    0.7500   -1.2990    0.0000 C   0  0  0  0  0  0  0  0  0  0  0  0
   -0.7500   -1.2990    0.0000 C   0  0  0  0  0  0  0  0  0  0  0  0
   -1.5000    0.0000    0.0000 C   0  0  0  0  0  0  0  0  0  0  0  0
   -0.7500    1.2990    0.0000 C   0  0  0  0  0  0  0  0  0  0  0  0
   -1.5000    2.5981    0.0000 O   0  0  0  0  0  0  0  0  0  0  0  0
   -0.7500    3.8971    0.0000 C   0  0  0  0  0  0  0  0  0  0  0  0
    0.7500    1.2990    0.0000 C   0  0  0  0  0  0  0  0  0  0  0  0
   -3.0000    0.0000    0.0000 O   0  0  0  0  0  0  0  0  0  0  0  0
   -3.7500    1.2990    0.0000 C   0  0  0  0  0  0  0  0  0  0  0  0
    6.0000   -2.5981    0.0000 C   0  0  0  0  0  0  0  0  0  0  0  0
    7.5000   -2.5981    0.0000 C   0  0  0  0  0  0  0  0  0  0  0  0
    8.2500   -1.2990    0.0000 O   0  0  0  0  0  0  0  0  0  0  0  0
    8.2500   -3.8971    0.0000 N   0  0  0  0  0  0  0  0  0  0  0  0
    9.7500   -3.8971    0.0000 C   0  0  0  0  0  0  0  0  0  0  0  0
   10.5000   -5.1962    0.0000 C   0  0  0  0  0  0  0  0  0  0  0  0
    9.7500   -6.4952    0.0000 O   0  0  0  0  0  0  0  0  0  0  0  0
   12.0000   -5.1962    0.0000 C   0  0  0  0  0  0  0  0  0  0  0  0
   10.5000   -2.5981    0.0000 C   0  0  0  0  0  0  0  0  0  0  0  0
    9.7500   -1.2990    0.0000 O   0  0  0  0  0  0  0  0  0  0  0  0
   12.0000   -2.5981    0.0000 N   0  0  0  0  0  0  0  0  0  0  0  0
   12.7500   -1.2990    0.0000 C   0  0  0  0  0  0  0  0  0  0  0  0
   14.2500   -1.2990    0.0000 C   0  0  0  0  0  0  0  0  0  0  0  0
   15.0000    0.0000    0.0000 C   0  0  0  0  0  0  0  0  0  0  0  0
   15.7500    1.2990    0.0000 C   0  0  0  0  0  0  0  0  0  0  0  0
   12.0000    0.0000    0.0000 C   0  0  0  0  0  0  0  0  0  0  0  0
   10.5000    0.0000    0.0000 O   0  0  0  0  0  0  0  0  0  0  0  0
   12.7500    1.2990    0.0000 O   0  0  0  0  0  0  0  0  0  0  0  0
  1  2  1  0
  2  3  1  0
  3  4  1  0
  4  5  2  0
  5  6  1  0
  6  7  2  0
  7  8  1  0
  8  9  1  0
  9 10  1  0
  8 11  2  0
  7 12  1  0
 12 13  1  0
  1 14  1  0
 14 15  1  0
 15 16  2  0
 15 17  1  0
 18 17  1  1
 18 19  1  0
 19 20  1  0
 19 21  1  1
 18 22  1  0
 22 23  2  0
 22 24  1  0
 24 25  1  0
 25 26  1  6
 26 27  1  0
 27 28  3  0
 25 29  1  0
 29 30  2  0
 29 31  1  0
 11  4  1  0
M  END
$$$$

     RDKit          2D

 38 38  0  0  0  0  0  0  0  0999 V2000
    1.2760    5.1962    0.0000 N   0  0  0  0  0  0  0  0  0  0  0  0
    2.7760    5.1962    0.0000 C   0  0  0  0  0  0  0  0  0  0  0  0
    3.5260    6.4952    0.0000 C   0  0  0  0  0  0  0  0  0  0  0  0
    2.7760    7.7942    0.0000 C   0  0  0  0  0  0  0  0  0  0  0  0
    3.5260    9.0933    0.0000 C   0  0  0  0  0  0  0  0  0  0  0  0
    1.2760    7.7942    0.0000 C   0  0  0  0  0  0  0  0  0  0  0  0
    3.5260    3.8971    0.0000 C   0  0  0  0  0  0  0  0  0  0  0  0
    5.0260    3.8971    0.0000 O   0  0  0  0  0  0  0  0  0  0  0  0
    2.7760    2.5981    0.0000 N   0  0  0  0  0  0  0  0  0  0  0  0
    3.5260    1.2990    0.0000 C   0  0  0  0  0  0  0  0  0  0  0  0
    5.0260    1.2990    0.0000 C   0  0  0  0  0  0  0  0  0  0  0  0
    5.7760    0.0000    0.0000 C   0  0  0  0  0  0  0  0  0  0  0  0
    5.0260   -1.2990    0.0000 C   0  0  0  0  0  0  0  0  0  0  0  0
    7.2760    0.0000    0.0000 C   0  0  0  0  0  0  0  0  0  0  0  0
    2.7760    0.0000    0.0000 C   0  0  0  0  0  0  0  0  0  0  0  0
    3.5260   -1.2990    0.0000 O   0  0  0  0  0  0  0  0  0  0  0  0
    1.2760    0.0000    0.0000 N   0  0  0  0  0  0  0  0  0  0  0  0
    0.3943    1.2135    0.0000 C   0  0  0  0  0  0  0  0  0  0  0  0
   -1.0323    0.7500    0.0000 C   0  0  0  0  0  0  0  0  0  0  0  0
   -1.0323   -0.7500    0.0000 C   0  0  0  0  0  0  0  0  0  0  0  0
    0.3943   -1.2135    0.0000 C   0  0  0  0  0  0  0  0  0  0  0  0
    0.8578   -2.6401    0.0000 C   0  0  0  0  0  0  0  0  0  0  0  0
    2.3250   -2.9520    0.0000 O   0  0  0  0  0  0  0  0  0  0  0  0
   -0.1459   -3.7548    0.0000 N   0  0  0  0  0  0  0  0  0  0  0  0
    0.3177   -5.1814    0.0000 C   0  0  0  0  0  0  0  0  0  0  0  0
   -0.6860   -6.2961    0.0000 C   0  0  0  0  0  0  0  0  0  0  0  0
   -2.1533   -5.9843    0.0000 O   0  0  0  0  0  0  0  0  0  0  0  0
   -0.2225   -7.7227    0.0000 C   0  0  0  0  0  0  0  0  0  0  0  0
    1.7849   -5.4933    0.0000 C   0  0  0  0  0  0  0  0  0  0  0  0
    2.7886   -4.3786    0.0000 O   0  0  0  0  0  0  0  0  0  0  0  0
    2.2484   -6.9199    0.0000 N   0  0  0  0  0  0  0  0  0  0  0  0
    3.7156   -7.2317    0.0000 C   0  0  0  0  0  0  0  0  0  0  0  0
    4.1791   -8.6583    0.0000 C   0  0  0  0  0  0  0  0  0  0  0  0
    5.6464   -8.9702    0.0000 C   0  0  0  0  0  0  0  0  0  0  0  0
    7.1136   -9.2821    0.0000 C   0  0  0  0  0  0  0  0  0  0  0  0
    4.7193   -6.1170    0.0000 C   0  0  0  0  0  0  0  0  0  0  0  0
    4.2558   -4.6904    0.0000 O   0  0  0  0  0  0  0  0  0  0  0  0
    6.1865   -6.4289    0.0000 O   0  0  0  0  0  0  0  0  0  0  0  0
  2  1  1  1
  2  3  1  0
  3  4  1  0
  4  5  1  0
  4  6  1  0
  2  7  1  0
  7  8  2  0
  7  9  1  0
  9 10  1  0
 10 11  1  1
 11 12  1  0
 12 13  1  0
 12 14  1  0
 10 15  1  0
 15 16  2  0
 15 17  1  0
 17 18  1  0
 18 19  1  0
 19 20  1  0
 20 21  1  0
 21 22  1  6
 22 23  2  0
 22 24  1  0
 25 24  1  1
 25 26  1  0
 26 27  1  0
 26 28  1  1
 25 29  1  0
 29 30  2  0
 29 31  1  0
 31 32  1  0
 32 33  1  6
 33 34  1  0
 34 35  3  0
 32 36  1  0
 36 37  2  0
 36 38  1  0
 21 17  1  0
M  END
$$$$

     RDKit          2D

 38 38  0  0  0  0  0  0  0  0999 V2000
    1.2760    5.1962    0.0000 N   0  0  0  0  0  0  0  0  0  0  0  0
    2.7760    5.1962    0.0000 C   0  0  0  0  0  0  0  0  0  0  0  0
    3.5260    6.4952    0.0000 C   0  0  0  0  0  0  0  0  0  0  0  0
    2.7760    7.7942    0.0000 C   0  0  0  0  0  0  0  0  0  0  0  0
    3.5260    9.0933    0.0000 C   0  0  0  0  0  0  0  0  0  0  0  0
    1.2760    7.7942    0.0000 C   0  0  0  0  0  0  0  0  0  0  0  0
    3.5260    3.8971    0.0000 C   0  0  0  0  0  0  0  0  0  0  0  0
    5.0260    3.8971    0.0000 O   0  0  0  0  0  0  0  0  0  0  0  0
    2.7760    2.5981    0.0000 N   0  0  0  0  0  0  0  0  0  0  0  0
    3.5260    1.2990    0.0000 C   0  0  0  0  0  0  0  0  0  0  0  0
    5.0260    1.2990    0.0000 C   0  0  0  0  0  0  0  0  0  0  0  0
    5.7760    0.0000    0.0000 C   0  0  0  0  0  0  0  0  0  0  0  0
    5.0260   -1.2990    0.0000 C   0  0  0  0  0  0  0  0  0  0  0  0
    7.2760    0.0000    0.0000 C   0  0  0  0  0  0  0  0  0  0  0  0
    2.7760    0.0000    0.0000 C   0  0  0  0  0  0  0  0  0  0  0  0
    3.5260   -1.2990    0.0000 O   0  0  0  0  0  0  0  0  0  0  0  0
    1.2760    0.0000    0.0000 N   0  0  0  0  0  0  0  0  0  0  0  0
    0.3943    1.2135    0.0000 C   0  0  0  0  0  0  0  0  0  0  0  0
   -1.0323    0.7500    0.0000 C   0  0  0  0  0  0  0  0  0  0  0  0
   -1.0323   -0.7500    0.0000 C   0  0  0  0  0  0  0  0  0  0  0  0
    0.3943   -1.2135    0.0000 C   0  0  0  0  0  0  0  0  0  0  0  0
    0.8578   -2.6401    0.0000 C   0  0  0  0  0  0  0  0  0  0  0  0
    2.3250   -2.9520    0.0000 O   0  0  0  0  0  0  0  0  0  0  0  0
   -0.1459   -3.7548    0.0000 N   0  0  0  0  0  0  0  0  0  0  0  0
    0.3177   -5.1814    0.0000 C   0  0  0  0  0  0  0  0  0  0  0  0
   -0.6860   -6.2961    0.0000 C   0  0  0  0  0  0  0  0  0  0  0  0
   -2.1533   -5.9843    0.0000 O   0  0  0  0  0  0  0  0  0  0  0  0
   -0.2225   -7.7227    0.0000 C   0  0  0  0  0  0  0  0  0  0  0  0
    1.7849   -5.4933    0.0000 C   0  0  0  0  0  0  0  0  0  0  0  0
    2.7886   -4.3786    0.0000 O   0  0  0  0  0  0  0  0  0  0  0  0
    2.2484   -6.9199    0.0000 N   0  0  0  0  0  0  0  0  0  0  0  0
    3.7156   -7.2317    0.0000 C   0  0  0  0  0  0  0  0  0  0  0  0
    4.1791   -8.6583    0.0000 C   0  0  0  0  0  0  0  0  0  0  0  0
    5.6464   -8.9702    0.0000 C   0  0  0  0  0  0  0  0  0  0  0  0
    7.1136   -9.2821    0.0000 C   0  0  0  0  0  0  0  0  0  0  0  0
    4.7193   -6.1170    0.0000 C   0  0  0  0  0  0  0  0  0  0  0  0
    4.2558   -4.6904    0.0000 O   0  0  0  0  0  0  0  0  0  0  0  0
    6.1865   -6.4289    0.0000 O   0  0  0  0  0  0  0  0  0  0  0  0
  2  1  1  6
  2  3  1  0
  3  4  1  0
  4  5  1  0
  4  6  1  0
  2  7  1  0
  7  8  2  0
  7  9  1  0
  9 10  1  0
 10 11  1  1
 11 12  1  0
 12 13  1  0
 12 14  1  0
 10 15  1  0
 15 16  2  0
 15 17  1  0
 17 18  1  0
 18 19  1  0
 19 20  1  0
 20 21  1  0
 21 22  1  6
 22 23  2  0
 22 24  1  0
 25 24  1  1
 25 26  1  0
 26 27  1  0
 26 28  1  1
 25 29  1  0
 29 30  2  0
 29 31  1  0
 31 32  1  0
 32 33  1  6
 33 34  1  0
 34 35  3  0
 32 36  1  0
 36 37  2  0
 36 38  1  0
 21 17  1  0
M  END
$$$$

     RDKit          2D

 39 39  0  0  0  0  0  0  0  0999 V2000
    1.2760    5.1962    0.0000 N   0  0  0  0  0  0  0  0  0  0  0  0
    0.5260    6.4952    0.0000 C   0  0  0  0  0  0  0  0  0  0  0  0
    2.7760    5.1962    0.0000 C   0  0  0  0  0  0  0  0  0  0  0  0
    3.5260    6.4952    0.0000 C   0  0  0  0  0  0  0  0  0  0  0  0
    2.7760    7.7942    0.0000 C   0  0  0  0  0  0  0  0  0  0  0  0
    3.5260    9.0933    0.0000 C   0  0  0  0  0  0  0  0  0  0  0  0
    1.2760    7.7942    0.0000 C   0  0  0  0  0  0  0  0  0  0  0  0
    3.5260    3.8971    0.0000 C   0  0  0  0  0  0  0  0  0  0  0  0
    5.0260    3.8971    0.0000 O   0  0  0  0  0  0  0  0  0  0  0  0
    2.7760    2.5981    0.0000 N   0  0  0  0  0  0  0  0  0  0  0  0
    3.5260    1.2990    0.0000 C   0  0  0  0  0  0  0  0  0  0  0  0
    5.0260    1.2990    0.0000 C   0  0  0  0  0  0  0  0  0  0  0  0
    5.7760    0.0000    0.0000 C   0  0  0  0  0  0  0  0  0  0  0  0
    7.2760    0.0000    0.0000 C   0  0  0  0  0  0  0  0  0  0  0  0
    5.0260   -1.2990    0.0000 C   0  0  0  0  0  0  0  0  0  0  0  0
    2.7760    0.0000    0.0000 C   0  0  0  0  0  0  0  0  0  0  0  0
    3.5260   -1.2990    0.0000 O   0  0  0  0  0  0  0  0  0  0  0  0
    1.2760    0.0000    0.0000 N   0  0  0  0  0  0  0  0  0  0  0  0
    0.3943    1.2135    0.0000 C   0  0  0  0  0  0  0  0  0  0  0  0
   -1.0323    0.7500    0.0000 C   0  0  0  0  0  0  0  0  0  0  0  0
   -1.0323   -0.7500    0.0000 C   0  0  0  0  0  0  0  0  0  0  0  0
    0.3943   -1.2135    0.0000 C   0  0  0  0  0  0  0  0  0  0  0  0
    0.8578   -2.6401    0.0000 C   0  0  0  0  0  0  0  0  0  0  0  0
    2.3250   -2.9520    0.0000 O   0  0  0  0  0  0  0  0  0  0  0  0
   -0.1459   -3.7548    0.0000 N   0  0  0  0  0  0  0  0  0  0  0  0
    0.3177   -5.1814    0.0000 C   0  0  0  0  0  0  0  0  0  0  0  0
   -0.6860   -6.2961    0.0000 C   0  0  0  0  0  0  0  0  0  0  0  0
   -2.1533   -5.9843    0.0000 O   0  0  0  0  0  0  0  0  0  0  0  0
   -0.2225   -7.7227    0.0000 C   0  0  0  0  0  0  0  0  0  0  0  0
    1.7849   -5.4933    0.0000 C   0  0  0  0  0  0  0  0  0  0  0  0
    2.7886   -4.3786    0.0000 O   0  0  0  0  0  0  0  0  0  0  0  0
    2.2484   -6.9199    0.0000 N   0  0  0  0  0  0  0  0  0  0  0  0
    3.7156   -7.2317    0.0000 C   0  0  0  0  0  0  0  0  0  0  0  0
    4.1791   -8.6583    0.0000 C   0  0  0  0  0  0  0  0  0  0  0  0
    5.6464   -8.9702    0.0000 C   0  0  0  0  0  0  0  0  0  0  0  0
    7.1136   -9.2821    0.0000 C   0  0  0  0  0  0  0  0  0  0  0  0
    4.7193   -6.1170    0.0000 C   0  0  0  0  0  0  0  0  0  0  0  0
    4.2558   -4.6904    0.0000 O   0  0  0  0  0  0  0  0  0  0  0  0
    6.1865   -6.4289    0.0000 O   0  0  0  0  0  0  0  0  0  0  0  0
  1  2  1  0
  1  3  1  0
  3  4  1  1
  4  5  1  0
  5  6  1  0
  5  7  1  0
  3  8  1  0
  8  9  2  0
  8 10  1  0
 10 11  1  0
 11 12  1  1
 12 13  1  0
 13 14  1  0
 13 15  1  0
 11 16  1  0
 16 17  2  0
 16 18  1  0
 18 19  1  0
 19 20  1  0
 20 21  1  0
 21 22  1  0
 22 23  1  6
 23 24  2  0
 23 25  1  0
 26 25  1  1
 26 27  1  0
 27 28  1  0
 27 29  1  1
 26 30  1  0
 30 31  2  0
 30 32  1  0
 32 33  1  0
 33 34  1  6
 34 35  1  0
 35 36  3  0
 33 37  1  0
 37 38  2  0
 37 39  1  0
 22 18  1  0
M  END
$$$$

     RDKit          2D

 39 39  0  0  0  0  0  0  0  0999 V2000
    1.2760    5.1962    0.0000 N   0  0  0  0  0  0  0  0  0  0  0  0
    0.5260    6.4952    0.0000 C   0  0  0  0  0  0  0  0  0  0  0  0
    2.7760    5.1962    0.0000 C   0  0  0  0  0  0  0  0  0  0  0  0
    3.5260    6.4952    0.0000 C   0  0  0  0  0  0  0  0  0  0  0  0
    2.7760    7.7942    0.0000 C   0  0  0  0  0  0  0  0  0  0  0  0
    3.5260    9.0933    0.0000 C   0  0  0  0  0  0  0  0  0  0  0  0
    1.2760    7.7942    0.0000 C   0  0  0  0  0  0  0  0  0  0  0  0
    3.5260    3.8971    0.0000 C   0  0  0  0  0  0  0  0  0  0  0  0
    5.0260    3.8971    0.0000 O   0  0  0  0  0  0  0  0  0  0  0  0
    2.7760    2.5981    0.0000 N   0  0  0  0  0  0  0  0  0  0  0  0
    3.5260    1.2990    0.0000 C   0  0  0  0  0  0  0  0  0  0  0  0
    5.0260    1.2990    0.0000 C   0  0  0  0  0  0  0  0  0  0  0  0
    5.7760    0.0000    0.0000 C   0  0  0  0  0  0  0  0  0  0  0  0
    7.2760    0.0000    0.0000 C   0  0  0  0  0  0  0  0  0  0  0  0
    5.0260   -1.2990    0.0000 C   0  0  0  0  0  0  0  0  0  0  0  0
    2.7760    0.0000    0.0000 C   0  0  0  0  0  0  0  0  0  0  0  0
    3.5260   -1.2990    0.0000 O   0  0  0  0  0  0  0  0  0  0  0  0
    1.2760    0.0000    0.0000 N   0  0  0  0  0  0  0  0  0  0  0  0
    0.3943    1.2135    0.0000 C   0  0  0  0  0  0  0  0  0  0  0  0
   -1.0323    0.7500    0.0000 C   0  0  0  0  0  0  0  0  0  0  0  0
   -1.0323   -0.7500    0.0000 C   0  0  0  0  0  0  0  0  0  0  0  0
    0.3943   -1.2135    0.0000 C   0  0  0  0  0  0  0  0  0  0  0  0
    0.8578   -2.6401    0.0000 C   0  0  0  0  0  0  0  0  0  0  0  0
    2.3250   -2.9520    0.0000 O   0  0  0  0  0  0  0  0  0  0  0  0
   -0.1459   -3.7548    0.0000 N   0  0  0  0  0  0  0  0  0  0  0  0
    0.3177   -5.1814    0.0000 C   0  0  0  0  0  0  0  0  0  0  0  0
   -0.6860   -6.2961    0.0000 C   0  0  0  0  0  0  0  0  0  0  0  0
   -2.1533   -5.9843    0.0000 O   0  0  0  0  0  0  0  0  0  0  0  0
   -0.2225   -7.7227    0.0000 C   0  0  0  0  0  0  0  0  0  0  0  0
    1.7849   -5.4933    0.0000 C   0  0  0  0  0  0  0  0  0  0  0  0
    2.7886   -4.3786    0.0000 O   0  0  0  0  0  0  0  0  0  0  0  0
    2.2484   -6.9199    0.0000 N   0  0  0  0  0  0  0  0  0  0  0  0
    3.7156   -7.2317    0.0000 C   0  0  0  0  0  0  0  0  0  0  0  0
    4.1791   -8.6583    0.0000 C   0  0  0  0  0  0  0  0  0  0  0  0
    5.6464   -8.9702    0.0000 C   0  0  0  0  0  0  0  0  0  0  0  0
    7.1136   -9.2821    0.0000 C   0  0  0  0  0  0  0  0  0  0  0  0
    4.7193   -6.1170    0.0000 C   0  0  0  0  0  0  0  0  0  0  0  0
    4.2558   -4.6904    0.0000 O   0  0  0  0  0  0  0  0  0  0  0  0
    6.1865   -6.4289    0.0000 O   0  0  0  0  0  0  0  0  0  0  0  0
  1  2  1  0
  1  3  1  0
  3  4  1  6
  4  5  1  0
  5  6  1  0
  5  7  1  0
  3  8  1  0
  8  9  2  0
  8 10  1  0
 10 11  1  0
 11 12  1  1
 12 13  1  0
 13 14  1  0
 13 15  1  0
 11 16  1  0
 16 17  2  0
 16 18  1  0
 18 19  1  0
 19 20  1  0
 20 21  1  0
 21 22  1  0
 22 23  1  6
 23 24  2  0
 23 25  1  0
 26 25  1  1
 26 27  1  0
 27 28  1  0
 27 29  1  1
 26 30  1  0
 30 31  2  0
 30 32  1  0
 32 33  1  0
 33 34  1  6
 34 35  1  0
 35 36  3  0
 33 37  1  0
 37 38  2  0
 37 39  1  0
 22 18  1  0
M  END
$$$$

     RDKit          2D

 38 38  0  0  0  0  0  0  0  0999 V2000
    1.2760    5.1962    0.0000 N   0  0  0  0  0  0  0  0  0  0  0  0
    2.7760    5.1962    0.0000 C   0  0  0  0  0  0  0  0  0  0  0  0
    3.5260    6.4952    0.0000 C   0  0  0  0  0  0  0  0  0  0  0  0
    2.7760    7.7942    0.0000 C   0  0  0  0  0  0  0  0  0  0  0  0
    3.5260    9.0933    0.0000 C   0  0  0  0  0  0  0  0  0  0  0  0
    1.2760    7.7942    0.0000 C   0  0  0  0  0  0  0  0  0  0  0  0
    3.5260    3.8971    0.0000 C   0  0  0  0  0  0  0  0  0  0  0  0
    5.0260    3.8971    0.0000 O   0  0  0  0  0  0  0  0  0  0  0  0
    2.7760    2.5981    0.0000 N   0  0  0  0  0  0  0  0  0  0  0  0
    3.5260    1.2990    0.0000 C   0  0  0  0  0  0  0  0  0  0  0  0
    5.0260    1.2990    0.0000 C   0  0  0  0  0  0  0  0  0  0  0  0
    5.7760    0.0000    0.0000 C   0  0  0  0  0  0  0  0  0  0  0  0
    5.0260   -1.2990    0.0000 C   0  0  0  0  0  0  0  0  0  0  0  0
    7.2760    0.0000    0.0000 C   0  0  0  0  0  0  0  0  0  0  0  0
    2.7760    0.0000    0.0000 C   0  0  0  0  0  0  0  0  0  0  0  0
    3.5260   -1.2990    0.0000 O   0  0  0  0  0  0  0  0  0  0  0  0
    1.2760    0.0000    0.0000 N   0  0  0  0  0  0  0  0  0  0  0  0
    0.3943    1.2135    0.0000 C   0  0  0  0  0  0  0  0  0  0  0  0
   -1.0323    0.7500    0.0000 C   0  0  0  0  0  0  0  0  0  0  0  0
   -1.0323   -0.7500    0.0000 C   0  0  0  0  0  0  0  0  0  0  0  0
    0.3943   -1.2135    0.0000 C   0  0  0  0  0  0  0  0  0  0  0  0
    0.8578   -2.6401    0.0000 C   0  0  0  0  0  0  0  0  0  0  0  0
    2.3250   -2.9520    0.0000 O   0  0  0  0  0  0  0  0  0  0  0  0
   -0.1459   -3.7548    0.0000 N   0  0  0  0  0  0  0  0  0  0  0  0
    0.3177   -5.1814    0.0000 C   0  0  0  0  0  0  0  0  0  0  0  0
   -0.6860   -6.2961    0.0000 C   0  0  0  0  0  0  0  0  0  0  0  0
   -2.1533   -5.9843    0.0000 O   0  0  0  0  0  0  0  0  0  0  0  0
   -0.2225   -7.7227    0.0000 C   0  0  0  0  0  0  0  0  0  0  0  0
    1.7849   -5.4933    0.0000 C   0  0  0  0  0  0  0  0  0  0  0  0
    2.7886   -4.3786    0.0000 O   0  0  0  0  0  0  0  0  0  0  0  0
    2.2484   -6.9199    0.0000 N   0  0  0  0  0  0  0  0  0  0  0  0
    3.7156   -7.2317    0.0000 C   0  0  0  0  0  0  0  0  0  0  0  0
    4.1791   -8.6583    0.0000 C   0  0  0  0  0  0  0  0  0  0  0  0
    5.6464   -8.9702    0.0000 C   0  0  0  0  0  0  0  0  0  0  0  0
    7.1136   -9.2821    0.0000 C   0  0  0  0  0  0  0  0  0  0  0  0
    4.7193   -6.1170    0.0000 C   0  0  0  0  0  0  0  0  0  0  0  0
    4.2558   -4.6904    0.0000 O   0  0  0  0  0  0  0  0  0  0  0  0
    6.1865   -6.4289    0.0000 O   0  0  0  0  0  0  0  0  0  0  0  0
  2  1  1  1
  2  3  1  0
  3  4  1  0
  4  5  1  0
  4  6  1  0
  2  7  1  0
  7  8  2  0
  7  9  1  0
  9 10  1  0
 10 11  1  6
 11 12  1  0
 12 13  1  0
 12 14  1  0
 10 15  1  0
 15 16  2  0
 15 17  1  0
 17 18  1  0
 18 19  1  0
 19 20  1  0
 20 21  1  0
 21 22  1  6
 22 23  2  0
 22 24  1  0
 25 24  1  1
 25 26  1  0
 26 27  1  0
 26 28  1  1
 25 29  1  0
 29 30  2  0
 29 31  1  0
 31 32  1  0
 32 33  1  6
 33 34  1  0
 34 35  3  0
 32 36  1  0
 36 37  2  0
 36 38  1  0
 21 17  1  0
M  END
$$$$

     RDKit          2D

 38 38  0  0  0  0  0  0  0  0999 V2000
    1.2760    5.1962    0.0000 N   0  0  0  0  0  0  0  0  0  0  0  0
    2.7760    5.1962    0.0000 C   0  0  0  0  0  0  0  0  0  0  0  0
    3.5260    6.4952    0.0000 C   0  0  0  0  0  0  0  0  0  0  0  0
    2.7760    7.7942    0.0000 C   0  0  0  0  0  0  0  0  0  0  0  0
    3.5260    9.0933    0.0000 C   0  0  0  0  0  0  0  0  0  0  0  0
    1.2760    7.7942    0.0000 C   0  0  0  0  0  0  0  0  0  0  0  0
    3.5260    3.8971    0.0000 C   0  0  0  0  0  0  0  0  0  0  0  0
    5.0260    3.8971    0.0000 O   0  0  0  0  0  0  0  0  0  0  0  0
    2.7760    2.5981    0.0000 N   0  0  0  0  0  0  0  0  0  0  0  0
    3.5260    1.2990    0.0000 C   0  0  0  0  0  0  0  0  0  0  0  0
    5.0260    1.2990    0.0000 C   0  0  0  0  0  0  0  0  0  0  0  0
    5.7760    0.0000    0.0000 C   0  0  0  0  0  0  0  0  0  0  0  0
    5.0260   -1.2990    0.0000 C   0  0  0  0  0  0  0  0  0  0  0  0
    7.2760    0.0000    0.0000 C   0  0  0  0  0  0  0  0  0  0  0  0
    2.7760    0.0000    0.0000 C   0  0  0  0  0  0  0  0  0  0  0  0
    3.5260   -1.2990    0.0000 O   0  0  0  0  0  0  0  0  0  0  0  0
    1.2760    0.0000    0.0000 N   0  0  0  0  0  0  0  0  0  0  0  0
    0.3943    1.2135    0.0000 C   0  0  0  0  0  0  0  0  0  0  0  0
   -1.0323    0.7500    0.0000 C   0  0  0  0  0  0  0  0  0  0  0  0
   -1.0323   -0.7500    0.0000 C   0  0  0  0  0  0  0  0  0  0  0  0
    0.3943   -1.2135    0.0000 C   0  0  0  0  0  0  0  0  0  0  0  0
    0.8578   -2.6401    0.0000 C   0  0  0  0  0  0  0  0  0  0  0  0
    2.3250   -2.9520    0.0000 O   0  0  0  0  0  0  0  0  0  0  0  0
   -0.1459   -3.7548    0.0000 N   0  0  0  0  0  0  0  0  0  0  0  0
    0.3177   -5.1814    0.0000 C   0  0  0  0  0  0  0  0  0  0  0  0
   -0.6860   -6.2961    0.0000 C   0  0  0  0  0  0  0  0  0  0  0  0
   -2.1533   -5.9843    0.0000 O   0  0  0  0  0  0  0  0  0  0  0  0
   -0.2225   -7.7227    0.0000 C   0  0  0  0  0  0  0  0  0  0  0  0
    1.7849   -5.4933    0.0000 C   0  0  0  0  0  0  0  0  0  0  0  0
    2.7886   -4.3786    0.0000 O   0  0  0  0  0  0  0  0  0  0  0  0
    2.2484   -6.9199    0.0000 N   0  0  0  0  0  0  0  0  0  0  0  0
    3.7156   -7.2317    0.0000 C   0  0  0  0  0  0  0  0  0  0  0  0
    4.1791   -8.6583    0.0000 C   0  0  0  0  0  0  0  0  0  0  0  0
    5.6464   -8.9702    0.0000 C   0  0  0  0  0  0  0  0  0  0  0  0
    7.1136   -9.2821    0.0000 C   0  0  0  0  0  0  0  0  0  0  0  0
    4.7193   -6.1170    0.0000 C   0  0  0  0  0  0  0  0  0  0  0  0
    4.2558   -4.6904    0.0000 O   0  0  0  0  0  0  0  0  0  0  0  0
    6.1865   -6.4289    0.0000 O   0  0  0  0  0  0  0  0  0  0  0  0
  2  1  1  6
  2  3  1  0
  3  4  1  0
  4  5  1  0
  4  6  1  0
  2  7  1  0
  7  8  2  0
  7  9  1  0
  9 10  1  0
 10 11  1  6
 11 12  1  0
 12 13  1  0
 12 14  1  0
 10 15  1  0
 15 16  2  0
 15 17  1  0
 17 18  1  0
 18 19  1  0
 19 20  1  0
 20 21  1  0
 21 22  1  6
 22 23  2  0
 22 24  1  0
 25 24  1  1
 25 26  1  0
 26 27  1  0
 26 28  1  1
 25 29  1  0
 29 30  2  0
 29 31  1  0
 31 32  1  0
 32 33  1  6
 33 34  1  0
 34 35  3  0
 32 36  1  0
 36 37  2  0
 36 38  1  0
 21 17  1  0
M  END
$$$$

     RDKit          2D

 39 39  0  0  0  0  0  0  0  0999 V2000
    1.2760    5.1962    0.0000 N   0  0  0  0  0  0  0  0  0  0  0  0
    0.5260    6.4952    0.0000 C   0  0  0  0  0  0  0  0  0  0  0  0
    2.7760    5.1962    0.0000 C   0  0  0  0  0  0  0  0  0  0  0  0
    3.5260    6.4952    0.0000 C   0  0  0  0  0  0  0  0  0  0  0  0
    2.7760    7.7942    0.0000 C   0  0  0  0  0  0  0  0  0  0  0  0
    3.5260    9.0933    0.0000 C   0  0  0  0  0  0  0  0  0  0  0  0
    1.2760    7.7942    0.0000 C   0  0  0  0  0  0  0  0  0  0  0  0
    3.5260    3.8971    0.0000 C   0  0  0  0  0  0  0  0  0  0  0  0
    5.0260    3.8971    0.0000 O   0  0  0  0  0  0  0  0  0  0  0  0
    2.7760    2.5981    0.0000 N   0  0  0  0  0  0  0  0  0  0  0  0
    3.5260    1.2990    0.0000 C   0  0  0  0  0  0  0  0  0  0  0  0
    5.0260    1.2990    0.0000 C   0  0  0  0  0  0  0  0  0  0  0  0
    5.7760    0.0000    0.0000 C   0  0  0  0  0  0  0  0  0  0  0  0
    7.2760    0.0000    0.0000 C   0  0  0  0  0  0  0  0  0  0  0  0
    5.0260   -1.2990    0.0000 C   0  0  0  0  0  0  0  0  0  0  0  0
    2.7760    0.0000    0.0000 C   0  0  0  0  0  0  0  0  0  0  0  0
    3.5260   -1.2990    0.0000 O   0  0  0  0  0  0  0  0  0  0  0  0
    1.2760    0.0000    0.0000 N   0  0  0  0  0  0  0  0  0  0  0  0
    0.3943    1.2135    0.0000 C   0  0  0  0  0  0  0  0  0  0  0  0
   -1.0323    0.7500    0.0000 C   0  0  0  0  0  0  0  0  0  0  0  0
   -1.0323   -0.7500    0.0000 C   0  0  0  0  0  0  0  0  0  0  0  0
    0.3943   -1.2135    0.0000 C   0  0  0  0  0  0  0  0  0  0  0  0
    0.8578   -2.6401    0.0000 C   0  0  0  0  0  0  0  0  0  0  0  0
    2.3250   -2.9520    0.0000 O   0  0  0  0  0  0  0  0  0  0  0  0
   -0.1459   -3.7548    0.0000 N   0  0  0  0  0  0  0  0  0  0  0  0
    0.3177   -5.1814    0.0000 C   0  0  0  0  0  0  0  0  0  0  0  0
   -0.6860   -6.2961    0.0000 C   0  0  0  0  0  0  0  0  0  0  0  0
   -2.1533   -5.9843    0.0000 O   0  0  0  0  0  0  0  0  0  0  0  0
   -0.2225   -7.7227    0.0000 C   0  0  0  0  0  0  0  0  0  0  0  0
    1.7849   -5.4933    0.0000 C   0  0  0  0  0  0  0  0  0  0  0  0
    2.7886   -4.3786    0.0000 O   0  0  0  0  0  0  0  0  0  0  0  0
    2.2484   -6.9199    0.0000 N   0  0  0  0  0  0  0  0  0  0  0  0
    3.7156   -7.2317    0.0000 C   0  0  0  0  0  0  0  0  0  0  0  0
    4.1791   -8.6583    0.0000 C   0  0  0  0  0  0  0  0  0  0  0  0
    5.6464   -8.9702    0.0000 C   0  0  0  0  0  0  0  0  0  0  0  0
    7.1136   -9.2821    0.0000 C   0  0  0  0  0  0  0  0  0  0  0  0
    4.7193   -6.1170    0.0000 C   0  0  0  0  0  0  0  0  0  0  0  0
    4.2558   -4.6904    0.0000 O   0  0  0  0  0  0  0  0  0  0  0  0
    6.1865   -6.4289    0.0000 O   0  0  0  0  0  0  0  0  0  0  0  0
  1  2  1  0
  1  3  1  0
  3  4  1  1
  4  5  1  0
  5  6  1  0
  5  7  1  0
  3  8  1  0
  8  9  2  0
  8 10  1  0
 10 11  1  0
 11 12  1  6
 12 13  1  0
 13 14  1  0
 13 15  1  0
 11 16  1  0
 16 17  2  0
 16 18  1  0
 18 19  1  0
 19 20  1  0
 20 21  1  0
 21 22  1  0
 22 23  1  6
 23 24  2  0
 23 25  1  0
 26 25  1  1
 26 27  1  0
 27 28  1  0
 27 29  1  1
 26 30  1  0
 30 31  2  0
 30 32  1  0
 32 33  1  0
 33 34  1  6
 34 35  1  0
 35 36  3  0
 33 37  1  0
 37 38  2  0
 37 39  1  0
 22 18  1  0
M  END
$$$$

     RDKit          2D

 39 39  0  0  0  0  0  0  0  0999 V2000
    1.2760    5.1962    0.0000 N   0  0  0  0  0  0  0  0  0  0  0  0
    0.5260    6.4952    0.0000 C   0  0  0  0  0  0  0  0  0  0  0  0
    2.7760    5.1962    0.0000 C   0  0  0  0  0  0  0  0  0  0  0  0
    3.5260    6.4952    0.0000 C   0  0  0  0  0  0  0  0  0  0  0  0
    2.7760    7.7942    0.0000 C   0  0  0  0  0  0  0  0  0  0  0  0
    3.5260    9.0933    0.0000 C   0  0  0  0  0  0  0  0  0  0  0  0
    1.2760    7.7942    0.0000 C   0  0  0  0  0  0  0  0  0  0  0  0
    3.5260    3.8971    0.0000 C   0  0  0  0  0  0  0  0  0  0  0  0
    5.0260    3.8971    0.0000 O   0  0  0  0  0  0  0  0  0  0  0  0
    2.7760    2.5981    0.0000 N   0  0  0  0  0  0  0  0  0  0  0  0
    3.5260    1.2990    0.0000 C   0  0  0  0  0  0  0  0  0  0  0  0
    5.0260    1.2990    0.0000 C   0  0  0  0  0  0  0  0  0  0  0  0
    5.7760    0.0000    0.0000 C   0  0  0  0  0  0  0  0  0  0  0  0
    7.2760    0.0000    0.0000 C   0  0  0  0  0  0  0  0  0  0  0  0
    5.0260   -1.2990    0.0000 C   0  0  0  0  0  0  0  0  0  0  0  0
    2.7760    0.0000    0.0000 C   0  0  0  0  0  0  0  0  0  0  0  0
    3.5260   -1.2990    0.0000 O   0  0  0  0  0  0  0  0  0  0  0  0
    1.2760    0.0000    0.0000 N   0  0  0  0  0  0  0  0  0  0  0  0
    0.3943    1.2135    0.0000 C   0  0  0  0  0  0  0  0  0  0  0  0
   -1.0323    0.7500    0.0000 C   0  0  0  0  0  0  0  0  0  0  0  0
   -1.0323   -0.7500    0.0000 C   0  0  0  0  0  0  0  0  0  0  0  0
    0.3943   -1.2135    0.0000 C   0  0  0  0  0  0  0  0  0  0  0  0
    0.8578   -2.6401    0.0000 C   0  0  0  0  0  0  0  0  0  0  0  0
    2.3250   -2.9520    0.0000 O   0  0  0  0  0  0  0  0  0  0  0  0
   -0.1459   -3.7548    0.0000 N   0  0  0  0  0  0  0  0  0  0  0  0
    0.3177   -5.1814    0.0000 C   0  0  0  0  0  0  0  0  0  0  0  0
   -0.6860   -6.2961    0.0000 C   0  0  0  0  0  0  0  0  0  0  0  0
   -2.1533   -5.9843    0.0000 O   0  0  0  0  0  0  0  0  0  0  0  0
   -0.2225   -7.7227    0.0000 C   0  0  0  0  0  0  0  0  0  0  0  0
    1.7849   -5.4933    0.0000 C   0  0  0  0  0  0  0  0  0  0  0  0
    2.7886   -4.3786    0.0000 O   0  0  0  0  0  0  0  0  0  0  0  0
    2.2484   -6.9199    0.0000 N   0  0  0  0  0  0  0  0  0  0  0  0
    3.7156   -7.2317    0.0000 C   0  0  0  0  0  0  0  0  0  0  0  0
    4.1791   -8.6583    0.0000 C   0  0  0  0  0  0  0  0  0  0  0  0
    5.6464   -8.9702    0.0000 C   0  0  0  0  0  0  0  0  0  0  0  0
    7.1136   -9.2821    0.0000 C   0  0  0  0  0  0  0  0  0  0  0  0
    4.7193   -6.1170    0.0000 C   0  0  0  0  0  0  0  0  0  0  0  0
    4.2558   -4.6904    0.0000 O   0  0  0  0  0  0  0  0  0  0  0  0
    6.1865   -6.4289    0.0000 O   0  0  0  0  0  0  0  0  0  0  0  0
  1  2  1  0
  1  3  1  0
  3  4  1  6
  4  5  1  0
  5  6  1  0
  5  7  1  0
  3  8  1  0
  8  9  2  0
  8 10  1  0
 10 11  1  0
 11 12  1  6
 12 13  1  0
 13 14  1  0
 13 15  1  0
 11 16  1  0
 16 17  2  0
 16 18  1  0
 18 19  1  0
 19 20  1  0
 20 21  1  0
 21 22  1  0
 22 23  1  6
 23 24  2  0
 23 25  1  0
 26 25  1  1
 26 27  1  0
 27 28  1  0
 27 29  1  1
 26 30  1  0
 30 31  2  0
 30 32  1  0
 32 33  1  0
 33 34  1  6
 34 35  1  0
 35 36  3  0
 33 37  1  0
 37 38  2  0
 37 39  1  0
 22 18  1  0
M  END
$$$$

     RDKit          2D

 39 39  0  0  0  0  0  0  0  0999 V2000
    8.0260    1.2990    0.0000 N   0  0  0  0  0  0  0  0  0  0  0  0
    7.2760    0.0000    0.0000 C   0  0  0  0  0  0  0  0  0  0  0  0
    8.0260   -1.2990    0.0000 C   0  0  0  0  0  0  0  0  0  0  0  0
    9.5260   -1.2990    0.0000 C   0  0  0  0  0  0  0  0  0  0  0  0
   10.2760   -2.5981    0.0000 C   0  0  0  0  0  0  0  0  0  0  0  0
   10.2760    0.0000    0.0000 C   0  0  0  0  0  0  0  0  0  0  0  0
    5.7760    0.0000    0.0000 C   0  0  0  0  0  0  0  0  0  0  0  0
    5.0260   -1.2990    0.0000 O   0  0  0  0  0  0  0  0  0  0  0  0
    5.0260    1.2990    0.0000 N   0  0  0  0  0  0  0  0  0  0  0  0
    5.7760    2.5981    0.0000 C   0  0  0  0  0  0  0  0  0  0  0  0
    3.5260    1.2990    0.0000 C   0  0  0  0  0  0  0  0  0  0  0  0
    2.7760    2.5981    0.0000 C   0  0  0  0  0  0  0  0  0  0  0  0
    3.5260    3.8971    0.0000 C   0  0  0  0  0  0  0  0  0  0  0  0
    2.7760    5.1962    0.0000 C   0  0  0  0  0  0  0  0  0  0  0  0
    5.0260    3.8971    0.0000 C   0  0  0  0  0  0  0  0  0  0  0  0
    2.7760    0.0000    0.0000 C   0  0  0  0  0  0  0  0  0  0  0  0
    3.5260   -1.2990    0.0000 O   0  0  0  0  0  0  0  0  0  0  0  0
    1.2760    0.0000    0.0000 N   0  0  0  0  0  0  0  0  0  0  0  0
    0.3943    1.2135    0.0000 C   0  0  0  0  0  0  0  0  0  0  0  0
   -1.0323    0.7500    0.0000 C   0  0  0  0  0  0  0  0  0  0  0  0
   -1.0323   -0.7500    0.0000 C   0  0  0  0  0  0  0  0  0  0  0  0
    0.3943   -1.2135    0.0000 C   0  0  0  0  0  0  0  0  0  0  0  0
    0.8578   -2.6401    0.0000 C   0  0  0  0  0  0  0  0  0  0  0  0
    2.3250   -2.9520    0.0000 O   0  0  0  0  0  0  0  0  0  0  0  0
   -0.1459   -3.7548    0.0000 N   0  0  0  0  0  0  0  0  0  0  0  0
    0.3177   -5.1814    0.0000 C   0  0  0  0  0  0  0  0  0  0  0  0
   -0.6860   -6.2961    0.0000 C   0  0  0  0  0  0  0  0  0  0  0  0
   -2.1533   -5.9843    0.0000 O   0  0  0  0  0  0  0  0  0  0  0  0
   -0.2225   -7.7227    0.0000 C   0  0  0  0  0  0  0  0  0  0  0  0
    1.7849   -5.4933    0.0000 C   0  0  0  0  0  0  0  0  0  0  0  0
    2.7886   -4.3786    0.0000 O   0  0  0  0  0  0  0  0  0  0  0  0
    2.2484   -6.9199    0.0000 N   0  0  0  0  0  0  0  0  0  0  0  0
    3.7156   -7.2317    0.0000 C   0  0  0  0  0  0  0  0  0  0  0  0
    4.1791   -8.6583    0.0000 C   0  0  0  0  0  0  0  0  0  0  0  0
    5.6464   -8.9702    0.0000 C   0  0  0  0  0  0  0  0  0  0  0  0
    7.1136   -9.2821    0.0000 C   0  0  0  0  0  0  0  0  0  0  0  0
    4.7193   -6.1170    0.0000 C   0  0  0  0  0  0  0  0  0  0  0  0
    4.2558   -4.6904    0.0000 O   0  0  0  0  0  0  0  0  0  0  0  0
    6.1865   -6.4289    0.0000 O   0  0  0  0  0  0  0  0  0  0  0  0
  2  1  1  1
  2  3  1  0
  3  4  1  0
  4  5  1  0
  4  6  1  0
  2  7  1  0
  7  8  2  0
  7  9  1  0
  9 10  1  0
  9 11  1  0
 11 12  1  6
 12 13  1  0
 13 14  1  0
 13 15  1  0
 11 16  1  0
 16 17  2  0
 16 18  1  0
 18 19  1  0
 19 20  1  0
 20 21  1  0
 21 22  1  0
 22 23  1  6
 23 24  2  0
 23 25  1  0
 26 25  1  1
 26 27  1  0
 27 28  1  0
 27 29  1  1
 26 30  1  0
 30 31  2  0
 30 32  1  0
 32 33  1  0
 33 34  1  6
 34 35  1  0
 35 36  3  0
 33 37  1  0
 37 38  2  0
 37 39  1  0
 22 18  1  0
M  END
$$$$

     RDKit          2D

 39 39  0  0  0  0  0  0  0  0999 V2000
    8.0260    1.2990    0.0000 N   0  0  0  0  0  0  0  0  0  0  0  0
    7.2760    0.0000    0.0000 C   0  0  0  0  0  0  0  0  0  0  0  0
    8.0260   -1.2990    0.0000 C   0  0  0  0  0  0  0  0  0  0  0  0
    9.5260   -1.2990    0.0000 C   0  0  0  0  0  0  0  0  0  0  0  0
   10.2760   -2.5981    0.0000 C   0  0  0  0  0  0  0  0  0  0  0  0
   10.2760    0.0000    0.0000 C   0  0  0  0  0  0  0  0  0  0  0  0
    5.7760    0.0000    0.0000 C   0  0  0  0  0  0  0  0  0  0  0  0
    5.0260   -1.2990    0.0000 O   0  0  0  0  0  0  0  0  0  0  0  0
    5.0260    1.2990    0.0000 N   0  0  0  0  0  0  0  0  0  0  0  0
    5.7760    2.5981    0.0000 C   0  0  0  0  0  0  0  0  0  0  0  0
    3.5260    1.2990    0.0000 C   0  0  0  0  0  0  0  0  0  0  0  0
    2.7760    2.5981    0.0000 C   0  0  0  0  0  0  0  0  0  0  0  0
    3.5260    3.8971    0.0000 C   0  0  0  0  0  0  0  0  0  0  0  0
    2.7760    5.1962    0.0000 C   0  0  0  0  0  0  0  0  0  0  0  0
    5.0260    3.8971    0.0000 C   0  0  0  0  0  0  0  0  0  0  0  0
    2.7760    0.0000    0.0000 C   0  0  0  0  0  0  0  0  0  0  0  0
    3.5260   -1.2990    0.0000 O   0  0  0  0  0  0  0  0  0  0  0  0
    1.2760    0.0000    0.0000 N   0  0  0  0  0  0  0  0  0  0  0  0
    0.3943    1.2135    0.0000 C   0  0  0  0  0  0  0  0  0  0  0  0
   -1.0323    0.7500    0.0000 C   0  0  0  0  0  0  0  0  0  0  0  0
   -1.0323   -0.7500    0.0000 C   0  0  0  0  0  0  0  0  0  0  0  0
    0.3943   -1.2135    0.0000 C   0  0  0  0  0  0  0  0  0  0  0  0
    0.8578   -2.6401    0.0000 C   0  0  0  0  0  0  0  0  0  0  0  0
    2.3250   -2.9520    0.0000 O   0  0  0  0  0  0  0  0  0  0  0  0
   -0.1459   -3.7548    0.0000 N   0  0  0  0  0  0  0  0  0  0  0  0
    0.3177   -5.1814    0.0000 C   0  0  0  0  0  0  0  0  0  0  0  0
   -0.6860   -6.2961    0.0000 C   0  0  0  0  0  0  0  0  0  0  0  0
   -2.1533   -5.9843    0.0000 O   0  0  0  0  0  0  0  0  0  0  0  0
   -0.2225   -7.7227    0.0000 C   0  0  0  0  0  0  0  0  0  0  0  0
    1.7849   -5.4933    0.0000 C   0  0  0  0  0  0  0  0  0  0  0  0
    2.7886   -4.3786    0.0000 O   0  0  0  0  0  0  0  0  0  0  0  0
    2.2484   -6.9199    0.0000 N   0  0  0  0  0  0  0  0  0  0  0  0
    3.7156   -7.2317    0.0000 C   0  0  0  0  0  0  0  0  0  0  0  0
    4.1791   -8.6583    0.0000 C   0  0  0  0  0  0  0  0  0  0  0  0
    5.6464   -8.9702    0.0000 C   0  0  0  0  0  0  0  0  0  0  0  0
    7.1136   -9.2821    0.0000 C   0  0  0  0  0  0  0  0  0  0  0  0
    4.7193   -6.1170    0.0000 C   0  0  0  0  0  0  0  0  0  0  0  0
    4.2558   -4.6904    0.0000 O   0  0  0  0  0  0  0  0  0  0  0  0
    6.1865   -6.4289    0.0000 O   0  0  0  0  0  0  0  0  0  0  0  0
  2  1  1  6
  2  3  1  0
  3  4  1  0
  4  5  1  0
  4  6  1  0
  2  7  1  0
  7  8  2  0
  7  9  1  0
  9 10  1  0
  9 11  1  0
 11 12  1  6
 12 13  1  0
 13 14  1  0
 13 15  1  0
 11 16  1  0
 16 17  2  0
 16 18  1  0
 18 19  1  0
 19 20  1  0
 20 21  1  0
 21 22  1  0
 22 23  1  6
 23 24  2  0
 23 25  1  0
 26 25  1  1
 26 27  1  0
 27 28  1  0
 27 29  1  1
 26 30  1  0
 30 31  2  0
 30 32  1  0
 32 33  1  0
 33 34  1  6
 34 35  1  0
 35 36  3  0
 33 37  1  0
 37 38  2  0
 37 39  1  0
 22 18  1  0
M  END
$$$$

     RDKit          2D

 24 23  0  0  0  0  0  0  0  0999 V2000
    1.2990    6.7500    0.0000 N   0  0  0  0  0  0  0  0  0  0  0  0
    2.5981    7.5000    0.0000 C   0  0  0  0  0  0  0  0  0  0  0  0
    2.5981    9.0000    0.0000 C   0  0  0  0  0  0  0  0  0  0  0  0
    1.2990    9.7500    0.0000 C   0  0  0  0  0  0  0  0  0  0  0  0
    1.2990   11.2500    0.0000 C   0  0  0  0  0  0  0  0  0  0  0  0
    0.0000    9.0000    0.0000 C   0  0  0  0  0  0  0  0  0  0  0  0
    3.8971    6.7500    0.0000 C   0  0  0  0  0  0  0  0  0  0  0  0
    5.1962    7.5000    0.0000 O   0  0  0  0  0  0  0  0  0  0  0  0
    3.8971    5.2500    0.0000 N   0  0  0  0  0  0  0  0  0  0  0  0
    2.5981    4.5000    0.0000 C   0  0  0  0  0  0  0  0  0  0  0  0
    5.1962    4.5000    0.0000 C   0  0  0  0  0  0  0  0  0  0  0  0
    6.4952    5.2500    0.0000 C   0  0  0  0  0  0  0  0  0  0  0  0
    6.4952    6.7500    0.0000 O   0  0  0  0  0  0  0  0  0  0  0  0
    7.7942    4.5000    0.0000 C   0  0  0  0  0  0  0  0  0  0  0  0
    5.1962    3.0000    0.0000 C   0  0  0  0  0  0  0  0  0  0  0  0
    3.8971    2.2500    0.0000 O   0  0  0  0  0  0  0  0  0  0  0  0
    6.4952    2.2500    0.0000 N   0  0  0  0  0  0  0  0  0  0  0  0
    6.4952    0.7500    0.0000 C   0  0  0  0  0  0  0  0  0  0  0  0
    7.7942    0.0000    0.0000 C   0  0  0  0  0  0  0  0  0  0  0  0
    7.7942   -1.5000    0.0000 C   0  0  0  0  0  0  0  0  0  0  0  0
    7.7942   -3.0000    0.0000 C   0  0  0  0  0  0  0  0  0  0  0  0
    5.1962   -0.0000    0.0000 C   0  0  0  0  0  0  0  0  0  0  0  0
    3.8971    0.7500    0.0000 O   0  0  0  0  0  0  0  0  0  0  0  0
    5.1962   -1.5000    0.0000 O   0  0  0  0  0  0  0  0  0  0  0  0
  2  1  1  1
  2  3  1  0
  3  4  1  0
  4  5  1  0
  4  6  1  0
  2  7  1  0
  7  8  2  0
  7  9  1  0
  9 10  1  0
 11  9  1  1
 11 12  1  0
 12 13  1  0
 12 14  1  6
 11 15  1  0
 15 16  2  0
 15 17  1  0
 17 18  1  0
 18 19  1  1
 19 20  1  0
 20 21  3  0
 18 22  1  0
 22 23  2  0
 22 24  1  0
M  END
$$$$

     RDKit          2D

 24 23  0  0  0  0  0  0  0  0999 V2000
    1.2990    6.7500    0.0000 N   0  0  0  0  0  0  0  0  0  0  0  0
    2.5981    7.5000    0.0000 C   0  0  0  0  0  0  0  0  0  0  0  0
    2.5981    9.0000    0.0000 C   0  0  0  0  0  0  0  0  0  0  0  0
    1.2990    9.7500    0.0000 C   0  0  0  0  0  0  0  0  0  0  0  0
    1.2990   11.2500    0.0000 C   0  0  0  0  0  0  0  0  0  0  0  0
    0.0000    9.0000    0.0000 C   0  0  0  0  0  0  0  0  0  0  0  0
    3.8971    6.7500    0.0000 C   0  0  0  0  0  0  0  0  0  0  0  0
    5.1962    7.5000    0.0000 O   0  0  0  0  0  0  0  0  0  0  0  0
    3.8971    5.2500    0.0000 N   0  0  0  0  0  0  0  0  0  0  0  0
    2.5981    4.5000    0.0000 C   0  0  0  0  0  0  0  0  0  0  0  0
    5.1962    4.5000    0.0000 C   0  0  0  0  0  0  0  0  0  0  0  0
    6.4952    5.2500    0.0000 C   0  0  0  0  0  0  0  0  0  0  0  0
    6.4952    6.7500    0.0000 O   0  0  0  0  0  0  0  0  0  0  0  0
    7.7942    4.5000    0.0000 C   0  0  0  0  0  0  0  0  0  0  0  0
    5.1962    3.0000    0.0000 C   0  0  0  0  0  0  0  0  0  0  0  0
    3.8971    2.2500    0.0000 O   0  0  0  0  0  0  0  0  0  0  0  0
    6.4952    2.2500    0.0000 N   0  0  0  0  0  0  0  0  0  0  0  0
    6.4952    0.7500    0.0000 C   0  0  0  0  0  0  0  0  0  0  0  0
    7.7942    0.0000    0.0000 C   0  0  0  0  0  0  0  0  0  0  0  0
    7.7942   -1.5000    0.0000 C   0  0  0  0  0  0  0  0  0  0  0  0
    7.7942   -3.0000    0.0000 C   0  0  0  0  0  0  0  0  0  0  0  0
    5.1962   -0.0000    0.0000 C   0  0  0  0  0  0  0  0  0  0  0  0
    3.8971    0.7500    0.0000 O   0  0  0  0  0  0  0  0  0  0  0  0
    5.1962   -1.5000    0.0000 O   0  0  0  0  0  0  0  0  0  0  0  0
  2  1  1  6
  2  3  1  0
  3  4  1  0
  4  5  1  0
  4  6  1  0
  2  7  1  0
  7  8  2  0
  7  9  1  0
  9 10  1  0
 11  9  1  1
 11 12  1  0
 12 13  1  0
 12 14  1  6
 11 15  1  0
 15 16  2  0
 15 17  1  0
 17 18  1  0
 18 19  1  1
 19 20  1  0
 20 21  3  0
 18 22  1  0
 22 23  2  0
 22 24  1  0
M  END
$$$$

     RDKit          2D

 23 22  0  0  0  0  0  0  0  0999 V2000
    5.1962    3.0000    0.0000 N   0  0  0  0  0  0  0  0  0  0  0  0
    5.1962    4.5000    0.0000 C   0  0  0  0  0  0  0  0  0  0  0  0
    6.4952    5.2500    0.0000 C   0  0  0  0  0  0  0  0  0  0  0  0
    7.7942    4.5000    0.0000 C   0  0  0  0  0  0  0  0  0  0  0  0
    6.4952    6.7500    0.0000 C   0  0  0  0  0  0  0  0  0  0  0  0
    3.8971    5.2500    0.0000 C   0  0  0  0  0  0  0  0  0  0  0  0
    3.8971    6.7500    0.0000 O   0  0  0  0  0  0  0  0  0  0  0  0
    2.5981    4.5000    0.0000 N   0  0  0  0  0  0  0  0  0  0  0  0
    2.5981    3.0000    0.0000 C   0  0  0  0  0  0  0  0  0  0  0  0
    1.2990    5.2500    0.0000 C   0  0  0  0  0  0  0  0  0  0  0  0
    1.2990    6.7500    0.0000 C   0  0  0  0  0  0  0  0  0  0  0  0
    2.5981    7.5000    0.0000 O   0  0  0  0  0  0  0  0  0  0  0  0
    0.0000    7.5000    0.0000 C   0  0  0  0  0  0  0  0  0  0  0  0
    0.0000    4.5000    0.0000 C   0  0  0  0  0  0  0  0  0  0  0  0
   -0.0000    3.0000    0.0000 O   0  0  0  0  0  0  0  0  0  0  0  0
   -1.2990    5.2500    0.0000 N   0  0  0  0  0  0  0  0  0  0  0  0
   -2.5981    4.5000    0.0000 C   0  0  0  0  0  0  0  0  0  0  0  0
   -3.8971    5.2500    0.0000 C   0  0  0  0  0  0  0  0  0  0  0  0
   -5.1962    4.5000    0.0000 C   0  0  0  0  0  0  0  0  0  0  0  0
   -6.4952    3.7500    0.0000 C   0  0  0  0  0  0  0  0  0  0  0  0
   -2.5981    3.0000    0.0000 C   0  0  0  0  0  0  0  0  0  0  0  0
   -1.2990    2.2500    0.0000 O   0  0  0  0  0  0  0  0  0  0  0  0
   -3.8971    2.2500    0.0000 O   0  0  0  0  0  0  0  0  0  0  0  0
  2  1  1  6
  2  3  1  0
  3  4  1  0
  3  5  1  0
  2  6  1  0
  6  7  2  0
  6  8  1  0
  8  9  1  0
 10  8  1  6
 10 11  1  0
 11 12  1  0
 11 13  1  1
 10 14  1  0
 14 15  2  0
 14 16  1  0
 16 17  1  0
 17 18  1  6
 18 19  1  0
 19 20  3  0
 17 21  1  0
 21 22  2  0
 21 23  1  0
M  END
$$$$

     RDKit          2D

 23 22  0  0  0  0  0  0  0  0999 V2000
    5.1962    3.0000    0.0000 N   0  0  0  0  0  0  0  0  0  0  0  0
    5.1962    4.5000    0.0000 C   0  0  0  0  0  0  0  0  0  0  0  0
    6.4952    5.2500    0.0000 C   0  0  0  0  0  0  0  0  0  0  0  0
    7.7942    4.5000    0.0000 C   0  0  0  0  0  0  0  0  0  0  0  0
    6.4952    6.7500    0.0000 C   0  0  0  0  0  0  0  0  0  0  0  0
    3.8971    5.2500    0.0000 C   0  0  0  0  0  0  0  0  0  0  0  0
    3.8971    6.7500    0.0000 O   0  0  0  0  0  0  0  0  0  0  0  0
    2.5981    4.5000    0.0000 N   0  0  0  0  0  0  0  0  0  0  0  0
    2.5981    3.0000    0.0000 C   0  0  0  0  0  0  0  0  0  0  0  0
    1.2990    5.2500    0.0000 C   0  0  0  0  0  0  0  0  0  0  0  0
    1.2990    6.7500    0.0000 C   0  0  0  0  0  0  0  0  0  0  0  0
    2.5981    7.5000    0.0000 O   0  0  0  0  0  0  0  0  0  0  0  0
    0.0000    7.5000    0.0000 C   0  0  0  0  0  0  0  0  0  0  0  0
    0.0000    4.5000    0.0000 C   0  0  0  0  0  0  0  0  0  0  0  0
   -0.0000    3.0000    0.0000 O   0  0  0  0  0  0  0  0  0  0  0  0
   -1.2990    5.2500    0.0000 N   0  0  0  0  0  0  0  0  0  0  0  0
   -2.5981    4.5000    0.0000 C   0  0  0  0  0  0  0  0  0  0  0  0
   -3.8971    5.2500    0.0000 C   0  0  0  0  0  0  0  0  0  0  0  0
   -5.1962    4.5000    0.0000 C   0  0  0  0  0  0  0  0  0  0  0  0
   -6.4952    3.7500    0.0000 C   0  0  0  0  0  0  0  0  0  0  0  0
   -2.5981    3.0000    0.0000 C   0  0  0  0  0  0  0  0  0  0  0  0
   -1.2990    2.2500    0.0000 O   0  0  0  0  0  0  0  0  0  0  0  0
   -3.8971    2.2500    0.0000 O   0  0  0  0  0  0  0  0  0  0  0  0
  2  1  1  1
  2  3  1  0
  3  4  1  0
  3  5  1  0
  2  6  1  0
  6  7  2  0
  6  8  1  0
  8  9  1  0
 10  8  1  6
 10 11  1  0
 11 12  1  0
 11 13  1  1
 10 14  1  0
 14 15  2  0
 14 16  1  0
 16 17  1  0
 17 18  1  6
 18 19  1  0
 19 20  3  0
 17 21  1  0
 21 22  2  0
 21 23  1  0
M  END
$$$$

     RDKit          2D

 25 24  0  0  0  0  0  0  0  0999 V2000
    1.2990   -3.7500    0.0000 N   0  0  0  0  0  0  0  0  0  0  0  0
    2.5981   -4.5000    0.0000 C   0  0  0  0  0  0  0  0  0  0  0  0
    1.2990   -2.2500    0.0000 C   0  0  0  0  0  0  0  0  0  0  0  0
   -0.0000   -1.5000    0.0000 C   0  0  0  0  0  0  0  0  0  0  0  0
   -0.0000   -0.0000    0.0000 C   0  0  0  0  0  0  0  0  0  0  0  0
   -1.2990    0.7500    0.0000 C   0  0  0  0  0  0  0  0  0  0  0  0
    1.2990    0.7500    0.0000 C   0  0  0  0  0  0  0  0  0  0  0  0
    2.5981   -1.5000    0.0000 C   0  0  0  0  0  0  0  0  0  0  0  0
    2.5981   -0.0000    0.0000 O   0  0  0  0  0  0  0  0  0  0  0  0
    3.8971   -2.2500    0.0000 N   0  0  0  0  0  0  0  0  0  0  0  0
    3.8971   -3.7500    0.0000 C   0  0  0  0  0  0  0  0  0  0  0  0
    5.1962   -1.5000    0.0000 C   0  0  0  0  0  0  0  0  0  0  0  0
    6.4952   -2.2500    0.0000 C   0  0  0  0  0  0  0  0  0  0  0  0
    6.4952   -3.7500    0.0000 O   0  0  0  0  0  0  0  0  0  0  0  0
    7.7942   -1.5000    0.0000 C   0  0  0  0  0  0  0  0  0  0  0  0
    5.1962    0.0000    0.0000 C   0  0  0  0  0  0  0  0  0  0  0  0
    3.8971    0.7500    0.0000 O   0  0  0  0  0  0  0  0  0  0  0  0
    6.4952    0.7500    0.0000 N   0  0  0  0  0  0  0  0  0  0  0  0
    6.4952    2.2500    0.0000 C   0  0  0  0  0  0  0  0  0  0  0  0
    7.7942    3.0000    0.0000 C   0  0  0  0  0  0  0  0  0  0  0  0
    7.7942    4.5000    0.0000 C   0  0  0  0  0  0  0  0  0  0  0  0
    7.7942    6.0000    0.0000 C   0  0  0  0  0  0  0  0  0  0  0  0
    5.1962    3.0000    0.0000 C   0  0  0  0  0  0  0  0  0  0  0  0
    3.8971    2.2500    0.0000 O   0  0  0  0  0  0  0  0  0  0  0  0
    5.1962    4.5000    0.0000 O   0  0  0  0  0  0  0  0  0  0  0  0
  1  2  1  0
  1  3  1  0
  3  4  1  1
  4  5  1  0
  5  6  1  0
  5  7  1  0
  3  8  1  0
  8  9  2  0
  8 10  1  0
 10 11  1  0
 12 10  1  6
 12 13  1  0
 13 14  1  0
 13 15  1  1
 12 16  1  0
 16 17  2  0
 16 18  1  0
 18 19  1  0
 19 20  1  6
 20 21  1  0
 21 22  3  0
 19 23  1  0
 23 24  2  0
 23 25  1  0
M  END
$$$$

     RDKit          2D

 25 24  0  0  0  0  0  0  0  0999 V2000
    1.2990   -3.7500    0.0000 N   0  0  0  0  0  0  0  0  0  0  0  0
    2.5981   -4.5000    0.0000 C   0  0  0  0  0  0  0  0  0  0  0  0
    1.2990   -2.2500    0.0000 C   0  0  0  0  0  0  0  0  0  0  0  0
   -0.0000   -1.5000    0.0000 C   0  0  0  0  0  0  0  0  0  0  0  0
   -0.0000   -0.0000    0.0000 C   0  0  0  0  0  0  0  0  0  0  0  0
   -1.2990    0.7500    0.0000 C   0  0  0  0  0  0  0  0  0  0  0  0
    1.2990    0.7500    0.0000 C   0  0  0  0  0  0  0  0  0  0  0  0
    2.5981   -1.5000    0.0000 C   0  0  0  0  0  0  0  0  0  0  0  0
    2.5981   -0.0000    0.0000 O   0  0  0  0  0  0  0  0  0  0  0  0
    3.8971   -2.2500    0.0000 N   0  0  0  0  0  0  0  0  0  0  0  0
    3.8971   -3.7500    0.0000 C   0  0  0  0  0  0  0  0  0  0  0  0
    5.1962   -1.5000    0.0000 C   0  0  0  0  0  0  0  0  0  0  0  0
    6.4952   -2.2500    0.0000 C   0  0  0  0  0  0  0  0  0  0  0  0
    6.4952   -3.7500    0.0000 O   0  0  0  0  0  0  0  0  0  0  0  0
    7.7942   -1.5000    0.0000 C   0  0  0  0  0  0  0  0  0  0  0  0
    5.1962    0.0000    0.0000 C   0  0  0  0  0  0  0  0  0  0  0  0
    3.8971    0.7500    0.0000 O   0  0  0  0  0  0  0  0  0  0  0  0
    6.4952    0.7500    0.0000 N   0  0  0  0  0  0  0  0  0  0  0  0
    6.4952    2.2500    0.0000 C   0  0  0  0  0  0  0  0  0  0  0  0
    7.7942    3.0000    0.0000 C   0  0  0  0  0  0  0  0  0  0  0  0
    7.7942    4.5000    0.0000 C   0  0  0  0  0  0  0  0  0  0  0  0
    7.7942    6.0000    0.0000 C   0  0  0  0  0  0  0  0  0  0  0  0
    5.1962    3.0000    0.0000 C   0  0  0  0  0  0  0  0  0  0  0  0
    3.8971    2.2500    0.0000 O   0  0  0  0  0  0  0  0  0  0  0  0
    5.1962    4.5000    0.0000 O   0  0  0  0  0  0  0  0  0  0  0  0
  1  2  1  0
  1  3  1  0
  3  4  1  6
  4  5  1  0
  5  6  1  0
  5  7  1  0
  3  8  1  0
  8  9  2  0
  8 10  1  0
 10 11  1  0
 12 10  1  6
 12 13  1  0
 13 14  1  0
 13 15  1  1
 12 16  1  0
 16 17  2  0
 16 18  1  0
 18 19  1  0
 19 20  1  6
 20 21  1  0
 21 22  3  0
 19 23  1  0
 23 24  2  0
 23 25  1  0
M  END
$$$$

     RDKit          2D

 27 27  0  0  0  0  0  0  0  0999 V2000
    7.5000    0.0000    0.0000 N   0  0  0  0  0  0  0  0  0  0  0  0
    8.2500   -1.2990    0.0000 C   0  0  0  0  0  0  0  0  0  0  0  0
    9.7500   -1.2990    0.0000 C   0  0  0  0  0  0  0  0  0  0  0  0
   10.5000    0.0000    0.0000 C   0  0  0  0  0  0  0  0  0  0  0  0
    9.7500    1.2990    0.0000 C   0  0  0  0  0  0  0  0  0  0  0  0
   10.5000    2.5981    0.0000 C   0  0  0  0  0  0  0  0  0  0  0  0
   12.0000    2.5981    0.0000 C   0  0  0  0  0  0  0  0  0  0  0  0
   12.7500    1.2990    0.0000 C   0  0  0  0  0  0  0  0  0  0  0  0
   12.0000    0.0000    0.0000 C   0  0  0  0  0  0  0  0  0  0  0  0
    7.5000   -2.5981    0.0000 C   0  0  0  0  0  0  0  0  0  0  0  0
    8.2500   -3.8971    0.0000 O   0  0  0  0  0  0  0  0  0  0  0  0
    6.0000   -2.5981    0.0000 N   0  0  0  0  0  0  0  0  0  0  0  0
    5.2500   -1.2990    0.0000 C   0  0  0  0  0  0  0  0  0  0  0  0
    5.2500   -3.8971    0.0000 C   0  0  0  0  0  0  0  0  0  0  0  0
    6.0000   -5.1962    0.0000 C   0  0  0  0  0  0  0  0  0  0  0  0
    7.5000   -5.1962    0.0000 O   0  0  0  0  0  0  0  0  0  0  0  0
    5.2500   -6.4952    0.0000 C   0  0  0  0  0  0  0  0  0  0  0  0
    3.7500   -3.8971    0.0000 C   0  0  0  0  0  0  0  0  0  0  0  0
    3.0000   -2.5981    0.0000 O   0  0  0  0  0  0  0  0  0  0  0  0
    3.0000   -5.1962    0.0000 N   0  0  0  0  0  0  0  0  0  0  0  0
    1.5000   -5.1962    0.0000 C   0  0  0  0  0  0  0  0  0  0  0  0
    0.7500   -6.4952    0.0000 C   0  0  0  0  0  0  0  0  0  0  0  0
   -0.7500   -6.4952    0.0000 C   0  0  0  0  0  0  0  0  0  0  0  0
   -2.2500   -6.4952    0.0000 C   0  0  0  0  0  0  0  0  0  0  0  0
    0.7500   -3.8971    0.0000 C   0  0  0  0  0  0  0  0  0  0  0  0
    1.5000   -2.5981    0.0000 O   0  0  0  0  0  0  0  0  0  0  0  0
   -0.7500   -3.8971    0.0000 O   0  0  0  0  0  0  0  0  0  0  0  0
  2  1  1  1
  2  3  1  0
  3  4  1  0
  4  5  2  0
  5  6  1  0
  6  7  2  0
  7  8  1  0
  8  9  2  0
  2 10  1  0
 10 11  2  0
 10 12  1  0
 12 13  1  0
 14 12  1  1
 14 15  1  0
 15 16  1  0
 15 17  1  6
 14 18  1  0
 18 19  2  0
 18 20  1  0
 20 21  1  0
 21 22  1  1
 22 23  1  0
 23 24  3  0
 21 25  1  0
 25 26  2  0
 25 27  1  0
  9  4  1  0
M  END
$$$$

     RDKit          2D

 27 27  0  0  0  0  0  0  0  0999 V2000
    7.5000    0.0000    0.0000 N   0  0  0  0  0  0  0  0  0  0  0  0
    8.2500   -1.2990    0.0000 C   0  0  0  0  0  0  0  0  0  0  0  0
    9.7500   -1.2990    0.0000 C   0  0  0  0  0  0  0  0  0  0  0  0
   10.5000    0.0000    0.0000 C   0  0  0  0  0  0  0  0  0  0  0  0
    9.7500    1.2990    0.0000 C   0  0  0  0  0  0  0  0  0  0  0  0
   10.5000    2.5981    0.0000 C   0  0  0  0  0  0  0  0  0  0  0  0
   12.0000    2.5981    0.0000 C   0  0  0  0  0  0  0  0  0  0  0  0
   12.7500    1.2990    0.0000 C   0  0  0  0  0  0  0  0  0  0  0  0
   12.0000    0.0000    0.0000 C   0  0  0  0  0  0  0  0  0  0  0  0
    7.5000   -2.5981    0.0000 C   0  0  0  0  0  0  0  0  0  0  0  0
    8.2500   -3.8971    0.0000 O   0  0  0  0  0  0  0  0  0  0  0  0
    6.0000   -2.5981    0.0000 N   0  0  0  0  0  0  0  0  0  0  0  0
    5.2500   -1.2990    0.0000 C   0  0  0  0  0  0  0  0  0  0  0  0
    5.2500   -3.8971    0.0000 C   0  0  0  0  0  0  0  0  0  0  0  0
    6.0000   -5.1962    0.0000 C   0  0  0  0  0  0  0  0  0  0  0  0
    7.5000   -5.1962    0.0000 O   0  0  0  0  0  0  0  0  0  0  0  0
    5.2500   -6.4952    0.0000 C   0  0  0  0  0  0  0  0  0  0  0  0
    3.7500   -3.8971    0.0000 C   0  0  0  0  0  0  0  0  0  0  0  0
    3.0000   -2.5981    0.0000 O   0  0  0  0  0  0  0  0  0  0  0  0
    3.0000   -5.1962    0.0000 N   0  0  0  0  0  0  0  0  0  0  0  0
    1.5000   -5.1962    0.0000 C   0  0  0  0  0  0  0  0  0  0  0  0
    0.7500   -6.4952    0.0000 C   0  0  0  0  0  0  0  0  0  0  0  0
   -0.7500   -6.4952    0.0000 C   0  0  0  0  0  0  0  0  0  0  0  0
   -2.2500   -6.4952    0.0000 C   0  0  0  0  0  0  0  0  0  0  0  0
    0.7500   -3.8971    0.0000 C   0  0  0  0  0  0  0  0  0  0  0  0
    1.5000   -2.5981    0.0000 O   0  0  0  0  0  0  0  0  0  0  0  0
   -0.7500   -3.8971    0.0000 O   0  0  0  0  0  0  0  0  0  0  0  0
  2  1  1  6
  2  3  1  0
  3  4  1  0
  4  5  2  0
  5  6  1  0
  6  7  2  0
  7  8  1  0
  8  9  2  0
  2 10  1  0
 10 11  2  0
 10 12  1  0
 12 13  1  0
 14 12  1  1
 14 15  1  0
 15 16  1  0
 15 17  1  6
 14 18  1  0
 18 19  2  0
 18 20  1  0
 20 21  1  0
 21 22  1  1
 22 23  1  0
 23 24  3  0
 21 25  1  0
 25 26  2  0
 25 27  1  0
  9  4  1  0
M  END
$$$$

     RDKit          2D

 28 28  0  0  0  0  0  0  0  0999 V2000
    7.5000    0.0000    0.0000 N   0  0  0  0  0  0  0  0  0  0  0  0
    8.2500   -1.2990    0.0000 C   0  0  0  0  0  0  0  0  0  0  0  0
    6.0000    0.0000    0.0000 C   0  0  0  0  0  0  0  0  0  0  0  0
    5.2500    1.2990    0.0000 C   0  0  0  0  0  0  0  0  0  0  0  0
    6.0000    2.5981    0.0000 C   0  0  0  0  0  0  0  0  0  0  0  0
    7.5000    2.5981    0.0000 C   0  0  0  0  0  0  0  0  0  0  0  0
    8.2500    3.8971    0.0000 C   0  0  0  0  0  0  0  0  0  0  0  0
    7.5000    5.1962    0.0000 C   0  0  0  0  0  0  0  0  0  0  0  0
    6.0000    5.1962    0.0000 C   0  0  0  0  0  0  0  0  0  0  0  0
    5.2500    3.8971    0.0000 C   0  0  0  0  0  0  0  0  0  0  0  0
    5.2500   -1.2990    0.0000 C   0  0  0  0  0  0  0  0  0  0  0  0
    3.7500   -1.2990    0.0000 O   0  0  0  0  0  0  0  0  0  0  0  0
    6.0000   -2.5981    0.0000 N   0  0  0  0  0  0  0  0  0  0  0  0
    7.5000   -2.5981    0.0000 C   0  0  0  0  0  0  0  0  0  0  0  0
    5.2500   -3.8971    0.0000 C   0  0  0  0  0  0  0  0  0  0  0  0
    3.7500   -3.8971    0.0000 C   0  0  0  0  0  0  0  0  0  0  0  0
    3.0000   -2.5981    0.0000 O   0  0  0  0  0  0  0  0  0  0  0  0
    3.0000   -5.1962    0.0000 C   0  0  0  0  0  0  0  0  0  0  0  0
    6.0000   -5.1962    0.0000 C   0  0  0  0  0  0  0  0  0  0  0  0
    7.5000   -5.1962    0.0000 O   0  0  0  0  0  0  0  0  0  0  0  0
    5.2500   -6.4952    0.0000 N   0  0  0  0  0  0  0  0  0  0  0  0
    6.0000   -7.7942    0.0000 C   0  0  0  0  0  0  0  0  0  0  0  0
    5.2500   -9.0933    0.0000 C   0  0  0  0  0  0  0  0  0  0  0  0
    6.0000  -10.3923    0.0000 C   0  0  0  0  0  0  0  0  0  0  0  0
    6.7500  -11.6913    0.0000 C   0  0  0  0  0  0  0  0  0  0  0  0
    7.5000   -7.7942    0.0000 C   0  0  0  0  0  0  0  0  0  0  0  0
    8.2500   -6.4952    0.0000 O   0  0  0  0  0  0  0  0  0  0  0  0
    8.2500   -9.0933    0.0000 O   0  0  0  0  0  0  0  0  0  0  0  0
  1  2  1  0
  1  3  1  0
  3  4  1  6
  4  5  1  0
  5  6  2  0
  6  7  1  0
  7  8  2  0
  8  9  1  0
  9 10  2  0
  3 11  1  0
 11 12  2  0
 11 13  1  0
 13 14  1  0
 15 13  1  6
 15 16  1  0
 16 17  1  0
 16 18  1  1
 15 19  1  0
 19 20  2  0
 19 21  1  0
 21 22  1  0
 22 23  1  6
 23 24  1  0
 24 25  3  0
 22 26  1  0
 26 27  2  0
 26 28  1  0
 10  5  1  0
M  END
$$$$

     RDKit          2D

 28 28  0  0  0  0  0  0  0  0999 V2000
    7.5000    0.0000    0.0000 N   0  0  0  0  0  0  0  0  0  0  0  0
    8.2500   -1.2990    0.0000 C   0  0  0  0  0  0  0  0  0  0  0  0
    6.0000    0.0000    0.0000 C   0  0  0  0  0  0  0  0  0  0  0  0
    5.2500    1.2990    0.0000 C   0  0  0  0  0  0  0  0  0  0  0  0
    6.0000    2.5981    0.0000 C   0  0  0  0  0  0  0  0  0  0  0  0
    7.5000    2.5981    0.0000 C   0  0  0  0  0  0  0  0  0  0  0  0
    8.2500    3.8971    0.0000 C   0  0  0  0  0  0  0  0  0  0  0  0
    7.5000    5.1962    0.0000 C   0  0  0  0  0  0  0  0  0  0  0  0
    6.0000    5.1962    0.0000 C   0  0  0  0  0  0  0  0  0  0  0  0
    5.2500    3.8971    0.0000 C   0  0  0  0  0  0  0  0  0  0  0  0
    5.2500   -1.2990    0.0000 C   0  0  0  0  0  0  0  0  0  0  0  0
    3.7500   -1.2990    0.0000 O   0  0  0  0  0  0  0  0  0  0  0  0
    6.0000   -2.5981    0.0000 N   0  0  0  0  0  0  0  0  0  0  0  0
    7.5000   -2.5981    0.0000 C   0  0  0  0  0  0  0  0  0  0  0  0
    5.2500   -3.8971    0.0000 C   0  0  0  0  0  0  0  0  0  0  0  0
    3.7500   -3.8971    0.0000 C   0  0  0  0  0  0  0  0  0  0  0  0
    3.0000   -2.5981    0.0000 O   0  0  0  0  0  0  0  0  0  0  0  0
    3.0000   -5.1962    0.0000 C   0  0  0  0  0  0  0  0  0  0  0  0
    6.0000   -5.1962    0.0000 C   0  0  0  0  0  0  0  0  0  0  0  0
    7.5000   -5.1962    0.0000 O   0  0  0  0  0  0  0  0  0  0  0  0
    5.2500   -6.4952    0.0000 N   0  0  0  0  0  0  0  0  0  0  0  0
    6.0000   -7.7942    0.0000 C   0  0  0  0  0  0  0  0  0  0  0  0
    5.2500   -9.0933    0.0000 C   0  0  0  0  0  0  0  0  0  0  0  0
    6.0000  -10.3923    0.0000 C   0  0  0  0  0  0  0  0  0  0  0  0
    6.7500  -11.6913    0.0000 C   0  0  0  0  0  0  0  0  0  0  0  0
    7.5000   -7.7942    0.0000 C   0  0  0  0  0  0  0  0  0  0  0  0
    8.2500   -6.4952    0.0000 O   0  0  0  0  0  0  0  0  0  0  0  0
    8.2500   -9.0933    0.0000 O   0  0  0  0  0  0  0  0  0  0  0  0
  1  2  1  0
  1  3  1  0
  3  4  1  1
  4  5  1  0
  5  6  2  0
  6  7  1  0
  7  8  2  0
  8  9  1  0
  9 10  2  0
  3 11  1  0
 11 12  2  0
 11 13  1  0
 13 14  1  0
 15 13  1  6
 15 16  1  0
 16 17  1  0
 16 18  1  1
 15 19  1  0
 19 20  2  0
 19 21  1  0
 21 22  1  0
 22 23  1  6
 23 24  1  0
 24 25  3  0
 22 26  1  0
 26 27  2  0
 26 28  1  0
 10  5  1  0
M  END
$$$$

     RDKit          2D

 23 22  0  0  0  0  0  0  0  0999 V2000
    5.1962    3.0000    0.0000 N   0  0  0  0  0  0  0  0  0  0  0  0
    6.4952    2.2500    0.0000 C   0  0  0  0  0  0  0  0  0  0  0  0
    7.7942    3.0000    0.0000 C   0  0  0  0  0  0  0  0  0  0  0  0
    9.0933    2.2500    0.0000 O   0  0  0  0  0  0  0  0  0  0  0  0
    7.7942    4.5000    0.0000 C   0  0  0  0  0  0  0  0  0  0  0  0
    6.4952    0.7500    0.0000 C   0  0  0  0  0  0  0  0  0  0  0  0
    7.7942   -0.0000    0.0000 O   0  0  0  0  0  0  0  0  0  0  0  0
    5.1962   -0.0000    0.0000 N   0  0  0  0  0  0  0  0  0  0  0  0
    3.8971    0.7500    0.0000 C   0  0  0  0  0  0  0  0  0  0  0  0
    5.1962   -1.5000    0.0000 C   0  0  0  0  0  0  0  0  0  0  0  0
    6.4952   -2.2500    0.0000 C   0  0  0  0  0  0  0  0  0  0  0  0
    7.7942   -1.5000    0.0000 O   0  0  0  0  0  0  0  0  0  0  0  0
    6.4952   -3.7500    0.0000 C   0  0  0  0  0  0  0  0  0  0  0  0
    3.8971   -2.2500    0.0000 C   0  0  0  0  0  0  0  0  0  0  0  0
    2.5981   -1.5000    0.0000 O   0  0  0  0  0  0  0  0  0  0  0  0
    3.8971   -3.7500    0.0000 N   0  0  0  0  0  0  0  0  0  0  0  0
    2.5981   -4.5000    0.0000 C   0  0  0  0  0  0  0  0  0  0  0  0
    2.5981   -6.0000    0.0000 C   0  0  0  0  0  0  0  0  0  0  0  0
    1.2990   -6.7500    0.0000 C   0  0  0  0  0  0  0  0  0  0  0  0
   -0.0000   -7.5000    0.0000 C   0  0  0  0  0  0  0  0  0  0  0  0
    1.2990   -3.7500    0.0000 C   0  0  0  0  0  0  0  0  0  0  0  0
    1.2990   -2.2500    0.0000 O   0  0  0  0  0  0  0  0  0  0  0  0
   -0.0000   -4.5000    0.0000 O   0  0  0  0  0  0  0  0  0  0  0  0
  2  1  1  1
  2  3  1  0
  3  4  1  0
  3  5  1  1
  2  6  1  0
  6  7  2  0
  6  8  1  0
  8  9  1  0
 10  8  1  1
 10 11  1  0
 11 12  1  0
 11 13  1  6
 10 14  1  0
 14 15  2  0
 14 16  1  0
 16 17  1  0
 17 18  1  1
 18 19  1  0
 19 20  3  0
 17 21  1  0
 21 22  2  0
 21 23  1  0
M  END
$$$$

     RDKit          2D

 23 22  0  0  0  0  0  0  0  0999 V2000
    5.1962    3.0000    0.0000 N   0  0  0  0  0  0  0  0  0  0  0  0
    6.4952    2.2500    0.0000 C   0  0  0  0  0  0  0  0  0  0  0  0
    7.7942    3.0000    0.0000 C   0  0  0  0  0  0  0  0  0  0  0  0
    9.0933    2.2500    0.0000 O   0  0  0  0  0  0  0  0  0  0  0  0
    7.7942    4.5000    0.0000 C   0  0  0  0  0  0  0  0  0  0  0  0
    6.4952    0.7500    0.0000 C   0  0  0  0  0  0  0  0  0  0  0  0
    7.7942   -0.0000    0.0000 O   0  0  0  0  0  0  0  0  0  0  0  0
    5.1962   -0.0000    0.0000 N   0  0  0  0  0  0  0  0  0  0  0  0
    3.8971    0.7500    0.0000 C   0  0  0  0  0  0  0  0  0  0  0  0
    5.1962   -1.5000    0.0000 C   0  0  0  0  0  0  0  0  0  0  0  0
    6.4952   -2.2500    0.0000 C   0  0  0  0  0  0  0  0  0  0  0  0
    7.7942   -1.5000    0.0000 O   0  0  0  0  0  0  0  0  0  0  0  0
    6.4952   -3.7500    0.0000 C   0  0  0  0  0  0  0  0  0  0  0  0
    3.8971   -2.2500    0.0000 C   0  0  0  0  0  0  0  0  0  0  0  0
    2.5981   -1.5000    0.0000 O   0  0  0  0  0  0  0  0  0  0  0  0
    3.8971   -3.7500    0.0000 N   0  0  0  0  0  0  0  0  0  0  0  0
    2.5981   -4.5000    0.0000 C   0  0  0  0  0  0  0  0  0  0  0  0
    2.5981   -6.0000    0.0000 C   0  0  0  0  0  0  0  0  0  0  0  0
    1.2990   -6.7500    0.0000 C   0  0  0  0  0  0  0  0  0  0  0  0
   -0.0000   -7.5000    0.0000 C   0  0  0  0  0  0  0  0  0  0  0  0
    1.2990   -3.7500    0.0000 C   0  0  0  0  0  0  0  0  0  0  0  0
    1.2990   -2.2500    0.0000 O   0  0  0  0  0  0  0  0  0  0  0  0
   -0.0000   -4.5000    0.0000 O   0  0  0  0  0  0  0  0  0  0  0  0
  2  1  1  6
  2  3  1  0
  3  4  1  0
  3  5  1  1
  2  6  1  0
  6  7  2  0
  6  8  1  0
  8  9  1  0
 10  8  1  1
 10 11  1  0
 11 12  1  0
 11 13  1  6
 10 14  1  0
 14 15  2  0
 14 16  1  0
 16 17  1  0
 17 18  1  1
 18 19  1  0
 19 20  3  0
 17 21  1  0
 21 22  2  0
 21 23  1  0
M  END
$$$$

     RDKit          2D

 24 23  0  0  0  0  0  0  0  0999 V2000
    2.5981   -6.0000    0.0000 N   0  0  0  0  0  0  0  0  0  0  0  0
    3.8971   -6.7500    0.0000 C   0  0  0  0  0  0  0  0  0  0  0  0
    2.5981   -4.5000    0.0000 C   0  0  0  0  0  0  0  0  0  0  0  0
    1.2990   -3.7500    0.0000 C   0  0  0  0  0  0  0  0  0  0  0  0
   -0.0000   -4.5000    0.0000 O   0  0  0  0  0  0  0  0  0  0  0  0
    1.2990   -2.2500    0.0000 C   0  0  0  0  0  0  0  0  0  0  0  0
    3.8971   -3.7500    0.0000 C   0  0  0  0  0  0  0  0  0  0  0  0
    5.1962   -4.5000    0.0000 O   0  0  0  0  0  0  0  0  0  0  0  0
    3.8971   -2.2500    0.0000 N   0  0  0  0  0  0  0  0  0  0  0  0
    2.5981   -1.5000    0.0000 C   0  0  0  0  0  0  0  0  0  0  0  0
    5.1962   -1.5000    0.0000 C   0  0  0  0  0  0  0  0  0  0  0  0
    6.4952   -2.2500    0.0000 C   0  0  0  0  0  0  0  0  0  0  0  0
    6.4952   -3.7500    0.0000 O   0  0  0  0  0  0  0  0  0  0  0  0
    7.7942   -1.5000    0.0000 C   0  0  0  0  0  0  0  0  0  0  0  0
    5.1962    0.0000    0.0000 C   0  0  0  0  0  0  0  0  0  0  0  0
    3.8971    0.7500    0.0000 O   0  0  0  0  0  0  0  0  0  0  0  0
    6.4952    0.7500    0.0000 N   0  0  0  0  0  0  0  0  0  0  0  0
    6.4952    2.2500    0.0000 C   0  0  0  0  0  0  0  0  0  0  0  0
    7.7942    3.0000    0.0000 C   0  0  0  0  0  0  0  0  0  0  0  0
    7.7942    4.5000    0.0000 C   0  0  0  0  0  0  0  0  0  0  0  0
    7.7942    6.0000    0.0000 C   0  0  0  0  0  0  0  0  0  0  0  0
    5.1962    3.0000    0.0000 C   0  0  0  0  0  0  0  0  0  0  0  0
    3.8971    2.2500    0.0000 O   0  0  0  0  0  0  0  0  0  0  0  0
    5.1962    4.5000    0.0000 O   0  0  0  0  0  0  0  0  0  0  0  0
  1  2  1  0
  3  1  1  1
  3  4  1  0
  4  5  1  0
  4  6  1  6
  3  7  1  0
  7  8  2  0
  7  9  1  0
  9 10  1  0
 11  9  1  6
 11 12  1  0
 12 13  1  0
 12 14  1  1
 11 15  1  0
 15 16  2  0
 15 17  1  0
 17 18  1  0
 18 19  1  6
 19 20  1  0
 20 21  3  0
 18 22  1  0
 22 23  2  0
 22 24  1  0
M  END
$$$$

     RDKit          2D

 24 23  0  0  0  0  0  0  0  0999 V2000
    2.5981   -6.0000    0.0000 N   0  0  0  0  0  0  0  0  0  0  0  0
    3.8971   -6.7500    0.0000 C   0  0  0  0  0  0  0  0  0  0  0  0
    2.5981   -4.5000    0.0000 C   0  0  0  0  0  0  0  0  0  0  0  0
    1.2990   -3.7500    0.0000 C   0  0  0  0  0  0  0  0  0  0  0  0
   -0.0000   -4.5000    0.0000 O   0  0  0  0  0  0  0  0  0  0  0  0
    1.2990   -2.2500    0.0000 C   0  0  0  0  0  0  0  0  0  0  0  0
    3.8971   -3.7500    0.0000 C   0  0  0  0  0  0  0  0  0  0  0  0
    5.1962   -4.5000    0.0000 O   0  0  0  0  0  0  0  0  0  0  0  0
    3.8971   -2.2500    0.0000 N   0  0  0  0  0  0  0  0  0  0  0  0
    2.5981   -1.5000    0.0000 C   0  0  0  0  0  0  0  0  0  0  0  0
    5.1962   -1.5000    0.0000 C   0  0  0  0  0  0  0  0  0  0  0  0
    6.4952   -2.2500    0.0000 C   0  0  0  0  0  0  0  0  0  0  0  0
    6.4952   -3.7500    0.0000 O   0  0  0  0  0  0  0  0  0  0  0  0
    7.7942   -1.5000    0.0000 C   0  0  0  0  0  0  0  0  0  0  0  0
    5.1962    0.0000    0.0000 C   0  0  0  0  0  0  0  0  0  0  0  0
    3.8971    0.7500    0.0000 O   0  0  0  0  0  0  0  0  0  0  0  0
    6.4952    0.7500    0.0000 N   0  0  0  0  0  0  0  0  0  0  0  0
    6.4952    2.2500    0.0000 C   0  0  0  0  0  0  0  0  0  0  0  0
    7.7942    3.0000    0.0000 C   0  0  0  0  0  0  0  0  0  0  0  0
    7.7942    4.5000    0.0000 C   0  0  0  0  0  0  0  0  0  0  0  0
    7.7942    6.0000    0.0000 C   0  0  0  0  0  0  0  0  0  0  0  0
    5.1962    3.0000    0.0000 C   0  0  0  0  0  0  0  0  0  0  0  0
    3.8971    2.2500    0.0000 O   0  0  0  0  0  0  0  0  0  0  0  0
    5.1962    4.5000    0.0000 O   0  0  0  0  0  0  0  0  0  0  0  0
  1  2  1  0
  3  1  1  6
  3  4  1  0
  4  5  1  0
  4  6  1  6
  3  7  1  0
  7  8  2  0
  7  9  1  0
  9 10  1  0
 11  9  1  6
 11 12  1  0
 12 13  1  0
 12 14  1  1
 11 15  1  0
 15 16  2  0
 15 17  1  0
 17 18  1  0
 18 19  1  6
 19 20  1  0
 20 21  3  0
 18 22  1  0
 22 23  2  0
 22 24  1  0
M  END
$$$$

     RDKit          2D

 24 23  0  0  0  0  0  0  0  0999 V2000
    2.5981    3.0000    0.0000 N   0  0  0  0  0  0  0  0  0  0  0  0
    1.2990    2.2500    0.0000 C   0  0  0  0  0  0  0  0  0  0  0  0
    1.2990    0.7500    0.0000 C   0  0  0  0  0  0  0  0  0  0  0  0
    0.0000    0.0000    0.0000 C   0  0  0  0  0  0  0  0  0  0  0  0
    2.5981   -0.0000    0.0000 C   0  0  0  0  0  0  0  0  0  0  0  0
    2.5981    4.5000    0.0000 C   0  0  0  0  0  0  0  0  0  0  0  0
    3.8971    5.2500    0.0000 C   0  0  0  0  0  0  0  0  0  0  0  0
    5.1962    4.5000    0.0000 O   0  0  0  0  0  0  0  0  0  0  0  0
    3.8971    6.7500    0.0000 N   0  0  0  0  0  0  0  0  0  0  0  0
    5.1962    7.5000    0.0000 C   0  0  0  0  0  0  0  0  0  0  0  0
    2.5981    7.5000    0.0000 C   0  0  0  0  0  0  0  0  0  0  0  0
    2.5981    9.0000    0.0000 C   0  0  0  0  0  0  0  0  0  0  0  0
    3.8971    9.7500    0.0000 O   0  0  0  0  0  0  0  0  0  0  0  0
    1.2990    9.7500    0.0000 C   0  0  0  0  0  0  0  0  0  0  0  0
    1.2990    6.7500    0.0000 C   0  0  0  0  0  0  0  0  0  0  0  0
    1.2990    5.2500    0.0000 O   0  0  0  0  0  0  0  0  0  0  0  0
    0.0000    7.5000    0.0000 N   0  0  0  0  0  0  0  0  0  0  0  0
   -1.2990    6.7500    0.0000 C   0  0  0  0  0  0  0  0  0  0  0  0
   -2.5981    7.5000    0.0000 C   0  0  0  0  0  0  0  0  0  0  0  0
   -3.8971    6.7500    0.0000 C   0  0  0  0  0  0  0  0  0  0  0  0
   -5.1962    6.0000    0.0000 C   0  0  0  0  0  0  0  0  0  0  0  0
   -1.2990    5.2500    0.0000 C   0  0  0  0  0  0  0  0  0  0  0  0
    0.0000    4.5000    0.0000 O   0  0  0  0  0  0  0  0  0  0  0  0
   -2.5981    4.5000    0.0000 O   0  0  0  0  0  0  0  0  0  0  0  0
  1  2  1  0
  2  3  1  0
  3  4  1  0
  3  5  1  0
  1  6  1  0
  6  7  1  0
  7  8  2  0
  7  9  1  0
  9 10  1  0
 11  9  1  6
 11 12  1  0
 12 13  1  0
 12 14  1  1
 11 15  1  0
 15 16  2  0
 15 17  1  0
 17 18  1  0
 18 19  1  6
 19 20  1  0
 20 21  3  0
 18 22  1  0
 22 23  2  0
 22 24  1  0
M  END
$$$$

     RDKit          2D

 27 26  0  0  0  0  0  0  0  0999 V2000
    3.8971    6.7500    0.0000 N   0  0  0  0  0  0  0  0  0  0  0  0
    3.8971    5.2500    0.0000 C   0  0  0  0  0  0  0  0  0  0  0  0
    2.5981    4.5000    0.0000 C   0  0  0  0  0  0  0  0  0  0  0  0
    2.5981    3.0000    0.0000 C   0  0  0  0  0  0  0  0  0  0  0  0
    1.2990    2.2500    0.0000 O   0  0  0  0  0  0  0  0  0  0  0  0
    1.2990    0.7500    0.0000 C   0  0  0  0  0  0  0  0  0  0  0  0
    0.0000    0.0000    0.0000 C   0  0  0  0  0  0  0  0  0  0  0  0
    2.5981   -0.0000    0.0000 C   0  0  0  0  0  0  0  0  0  0  0  0
    5.1962    7.5000    0.0000 C   0  0  0  0  0  0  0  0  0  0  0  0
    5.1962    9.0000    0.0000 C   0  0  0  0  0  0  0  0  0  0  0  0
    3.8971    9.7500    0.0000 O   0  0  0  0  0  0  0  0  0  0  0  0
    6.4952    9.7500    0.0000 N   0  0  0  0  0  0  0  0  0  0  0  0
    6.4952   11.2500    0.0000 C   0  0  0  0  0  0  0  0  0  0  0  0
    7.7942    9.0000    0.0000 C   0  0  0  0  0  0  0  0  0  0  0  0
    9.0933    9.7500    0.0000 C   0  0  0  0  0  0  0  0  0  0  0  0
    9.0933   11.2500    0.0000 O   0  0  0  0  0  0  0  0  0  0  0  0
   10.3923    9.0000    0.0000 C   0  0  0  0  0  0  0  0  0  0  0  0
    7.7942    7.5000    0.0000 C   0  0  0  0  0  0  0  0  0  0  0  0
    6.4952    6.7500    0.0000 O   0  0  0  0  0  0  0  0  0  0  0  0
    9.0933    6.7500    0.0000 N   0  0  0  0  0  0  0  0  0  0  0  0
    9.0933    5.2500    0.0000 C   0  0  0  0  0  0  0  0  0  0  0  0
   10.3923    4.5000    0.0000 C   0  0  0  0  0  0  0  0  0  0  0  0
   10.3923    3.0000    0.0000 C   0  0  0  0  0  0  0  0  0  0  0  0
   10.3923    1.5000    0.0000 C   0  0  0  0  0  0  0  0  0  0  0  0
    7.7942    4.5000    0.0000 C   0  0  0  0  0  0  0  0  0  0  0  0
    6.4952    5.2500    0.0000 O   0  0  0  0  0  0  0  0  0  0  0  0
    7.7942    3.0000    0.0000 O   0  0  0  0  0  0  0  0  0  0  0  0
  1  2  1  0
  2  3  1  0
  3  4  1  0
  4  5  1  0
  5  6  1  0
  6  7  1  0
  6  8  1  0
  1  9  1  0
  9 10  1  0
 10 11  2  0
 10 12  1  0
 12 13  1  0
 14 12  1  1
 14 15  1  0
 15 16  1  0
 15 17  1  6
 14 18  1  0
 18 19  2  0
 18 20  1  0
 20 21  1  0
 21 22  1  1
 22 23  1  0
 23 24  3  0
 21 25  1  0
 25 26  2  0
 25 27  1  0
M  END
$$$$

     RDKit          2D

 29 29  0  0  0  0  0  0  0  0999 V2000
    6.0000   -2.5981    0.0000 N   0  0  0  0  0  0  0  0  0  0  0  0
    5.2500   -1.2990    0.0000 C   0  0  0  0  0  0  0  0  0  0  0  0
    3.7500   -1.2990    0.0000 C   0  0  0  0  0  0  0  0  0  0  0  0
    3.0000    0.0000    0.0000 O   0  0  0  0  0  0  0  0  0  0  0  0
    1.5000    0.0000    0.0000 C   0  0  0  0  0  0  0  0  0  0  0  0
    0.7500   -1.2990    0.0000 C   0  0  0  0  0  0  0  0  0  0  0  0
   -0.7500   -1.2990    0.0000 C   0  0  0  0  0  0  0  0  0  0  0  0
   -1.5000    0.0000    0.0000 C   0  0  0  0  0  0  0  0  0  0  0  0
   -0.7500    1.2990    0.0000 C   0  0  0  0  0  0  0  0  0  0  0  0
    0.7500    1.2990    0.0000 C   0  0  0  0  0  0  0  0  0  0  0  0
    7.5000   -2.5981    0.0000 C   0  0  0  0  0  0  0  0  0  0  0  0
    8.2500   -3.8971    0.0000 C   0  0  0  0  0  0  0  0  0  0  0  0
    7.5000   -5.1962    0.0000 O   0  0  0  0  0  0  0  0  0  0  0  0
    9.7500   -3.8971    0.0000 N   0  0  0  0  0  0  0  0  0  0  0  0
   10.5000   -5.1962    0.0000 C   0  0  0  0  0  0  0  0  0  0  0  0
   10.5000   -2.5981    0.0000 C   0  0  0  0  0  0  0  0  0  0  0  0
   12.0000   -2.5981    0.0000 C   0  0  0  0  0  0  0  0  0  0  0  0
   12.7500   -3.8971    0.0000 O   0  0  0  0  0  0  0  0  0  0  0  0
   12.7500   -1.2990    0.0000 C   0  0  0  0  0  0  0  0  0  0  0  0
    9.7500   -1.2990    0.0000 C   0  0  0  0  0  0  0  0  0  0  0  0
    8.2500   -1.2990    0.0000 O   0  0  0  0  0  0  0  0  0  0  0  0
   10.5000    0.0000    0.0000 N   0  0  0  0  0  0  0  0  0  0  0  0
    9.7500    1.2990    0.0000 C   0  0  0  0  0  0  0  0  0  0  0  0
   10.5000    2.5981    0.0000 C   0  0  0  0  0  0  0  0  0  0  0  0
    9.7500    3.8971    0.0000 C   0  0  0  0  0  0  0  0  0  0  0  0
    9.0000    5.1962    0.0000 C   0  0  0  0  0  0  0  0  0  0  0  0
    8.2500    1.2990    0.0000 C   0  0  0  0  0  0  0  0  0  0  0  0
    7.5000    0.0000    0.0000 O   0  0  0  0  0  0  0  0  0  0  0  0
    7.5000    2.5981    0.0000 O   0  0  0  0  0  0  0  0  0  0  0  0
  1  2  1  0
  2  3  1  0
  3  4  1  0
  4  5  1  0
  5  6  2  0
  6  7  1  0
  7  8  2  0
  8  9  1  0
  9 10  2  0
  1 11  1  0
 11 12  1  0
 12 13  2  0
 12 14  1  0
 14 15  1  0
 16 14  1  6
 16 17  1  0
 17 18  1  0
 17 19  1  1
 16 20  1  0
 20 21  2  0
 20 22  1  0
 22 23  1  0
 23 24  1  6
 24 25  1  0
 25 26  3  0
 23 27  1  0
 27 28  2  0
 27 29  1  0
 10  5  1  0
M  END
$$$$

     RDKit          2D

 32 32  0  0  0  0  0  0  0  0999 V2000
    5.2500   -1.2990    0.0000 N   0  0  0  0  0  0  0  0  0  0  0  0
    3.7500   -1.2990    0.0000 C   0  0  0  0  0  0  0  0  0  0  0  0
    3.0000    0.0000    0.0000 C   0  0  0  0  0  0  0  0  0  0  0  0
    1.5000    0.0000    0.0000 C   0  0  0  0  0  0  0  0  0  0  0  0
    0.7500   -1.2990    0.0000 C   0  0  0  0  0  0  0  0  0  0  0  0
   -0.7500   -1.2990    0.0000 C   0  0  0  0  0  0  0  0  0  0  0  0
   -1.5000    0.0000    0.0000 C   0  0  0  0  0  0  0  0  0  0  0  0
   -0.7500    1.2990    0.0000 C   0  0  0  0  0  0  0  0  0  0  0  0
   -1.5000    2.5981    0.0000 O   0  0  0  0  0  0  0  0  0  0  0  0
   -0.7500    3.8971    0.0000 C   0  0  0  0  0  0  0  0  0  0  0  0
    0.7500    1.2990    0.0000 C   0  0  0  0  0  0  0  0  0  0  0  0
   -3.0000    0.0000    0.0000 O   0  0  0  0  0  0  0  0  0  0  0  0
   -3.7500    1.2990    0.0000 C   0  0  0  0  0  0  0  0  0  0  0  0
    6.0000   -2.5981    0.0000 C   0  0  0  0  0  0  0  0  0  0  0  0
    7.5000   -2.5981    0.0000 C   0  0  0  0  0  0  0  0  0  0  0  0
    8.2500   -1.2990    0.0000 O   0  0  0  0  0  0  0  0  0  0  0  0
    8.2500   -3.8971    0.0000 N   0  0  0  0  0  0  0  0  0  0  0  0
    9.7500   -3.8971    0.0000 C   0  0  0  0  0  0  0  0  0  0  0  0
    7.5000   -5.1962    0.0000 C   0  0  0  0  0  0  0  0  0  0  0  0
    8.2500   -6.4952    0.0000 C   0  0  0  0  0  0  0  0  0  0  0  0
    9.7500   -6.4952    0.0000 O   0  0  0  0  0  0  0  0  0  0  0  0
    7.5000   -7.7942    0.0000 C   0  0  0  0  0  0  0  0  0  0  0  0
    6.0000   -5.1962    0.0000 C   0  0  0  0  0  0  0  0  0  0  0  0
    5.2500   -3.8971    0.0000 O   0  0  0  0  0  0  0  0  0  0  0  0
    5.2500   -6.4952    0.0000 N   0  0  0  0  0  0  0  0  0  0  0  0
    3.7500   -6.4952    0.0000 C   0  0  0  0  0  0  0  0  0  0  0  0
    3.0000   -7.7942    0.0000 C   0  0  0  0  0  0  0  0  0  0  0  0
    1.5000   -7.7942    0.0000 C   0  0  0  0  0  0  0  0  0  0  0  0
    0.0000   -7.7942    0.0000 C   0  0  0  0  0  0  0  0  0  0  0  0
    3.0000   -5.1962    0.0000 C   0  0  0  0  0  0  0  0  0  0  0  0
    3.7500   -3.8971    0.0000 O   0  0  0  0  0  0  0  0  0  0  0  0
    1.5000   -5.1962    0.0000 O   0  0  0  0  0  0  0  0  0  0  0  0
  1  2  1  0
  2  3  1  0
  3  4  1  0
  4  5  2  0
  5  6  1  0
  6  7  2  0
  7  8  1  0
  8  9  1  0
  9 10  1  0
  8 11  2  0
  7 12  1  0
 12 13  1  0
  1 14  1  0
 14 15  1  0
 15 16  2  0
 15 17  1  0
 17 18  1  0
 19 17  1  1
 19 20  1  0
 20 21  1  0
 20 22  1  6
 19 23  1  0
 23 24  2  0
 23 25  1  0
 25 26  1  0
 26 27  1  1
 27 28  1  0
 28 29  3  0
 26 30  1  0
 30 31  2  0
 30 32  1  0
 11  4  1  0
M  END
$$$$

     RDKit          2D

 39 39  0  0  0  0  0  0  0  0999 V2000
    1.2760    5.1962    0.0000 N   0  0  0  0  0  0  0  0  0  0  0  0
    2.7760    5.1962    0.0000 C   0  0  0  0  0  0  0  0  0  0  0  0
    3.5260    6.4952    0.0000 C   0  0  0  0  0  0  0  0  0  0  0  0
    2.7760    7.7942    0.0000 C   0  0  0  0  0  0  0  0  0  0  0  0
    3.5260    9.0933    0.0000 C   0  0  0  0  0  0  0  0  0  0  0  0
    1.2760    7.7942    0.0000 C   0  0  0  0  0  0  0  0  0  0  0  0
    3.5260    3.8971    0.0000 C   0  0  0  0  0  0  0  0  0  0  0  0
    5.0260    3.8971    0.0000 O   0  0  0  0  0  0  0  0  0  0  0  0
    2.7760    2.5981    0.0000 N   0  0  0  0  0  0  0  0  0  0  0  0
    3.5260    1.2990    0.0000 C   0  0  0  0  0  0  0  0  0  0  0  0
    5.0260    1.2990    0.0000 C   0  0  0  0  0  0  0  0  0  0  0  0
    5.7760    0.0000    0.0000 C   0  0  0  0  0  0  0  0  0  0  0  0
    7.2760    0.0000    0.0000 C   0  0  0  0  0  0  0  0  0  0  0  0
    5.0260   -1.2990    0.0000 C   0  0  0  0  0  0  0  0  0  0  0  0
    2.7760    0.0000    0.0000 C   0  0  0  0  0  0  0  0  0  0  0  0
    3.5260   -1.2990    0.0000 O   0  0  0  0  0  0  0  0  0  0  0  0
    1.2760    0.0000    0.0000 N   0  0  0  0  0  0  0  0  0  0  0  0
    0.3943    1.2135    0.0000 C   0  0  0  0  0  0  0  0  0  0  0  0
   -1.0323    0.7500    0.0000 C   0  0  0  0  0  0  0  0  0  0  0  0
   -1.0323   -0.7500    0.0000 C   0  0  0  0  0  0  0  0  0  0  0  0
    0.3943   -1.2135    0.0000 C   0  0  0  0  0  0  0  0  0  0  0  0
    0.8578   -2.6401    0.0000 C   0  0  0  0  0  0  0  0  0  0  0  0
    2.3250   -2.9520    0.0000 O   0  0  0  0  0  0  0  0  0  0  0  0
   -0.1459   -3.7548    0.0000 N   0  0  0  0  0  0  0  0  0  0  0  0
   -1.6131   -3.4430    0.0000 C   0  0  0  0  0  0  0  0  0  0  0  0
    0.3177   -5.1814    0.0000 C   0  0  0  0  0  0  0  0  0  0  0  0
    1.7849   -5.4933    0.0000 C   0  0  0  0  0  0  0  0  0  0  0  0
    2.2484   -6.9199    0.0000 O   0  0  0  0  0  0  0  0  0  0  0  0
    2.7886   -4.3786    0.0000 C   0  0  0  0  0  0  0  0  0  0  0  0
   -0.6860   -6.2961    0.0000 C   0  0  0  0  0  0  0  0  0  0  0  0
   -2.1533   -5.9843    0.0000 O   0  0  0  0  0  0  0  0  0  0  0  0
   -0.2225   -7.7227    0.0000 N   0  0  0  0  0  0  0  0  0  0  0  0
   -1.2262   -8.8374    0.0000 C   0  0  0  0  0  0  0  0  0  0  0  0
   -0.7627  -10.2640    0.0000 C   0  0  0  0  0  0  0  0  0  0  0  0
   -1.7664  -11.3787    0.0000 C   0  0  0  0  0  0  0  0  0  0  0  0
   -2.7701  -12.4935    0.0000 C   0  0  0  0  0  0  0  0  0  0  0  0
   -2.6934   -8.5256    0.0000 C   0  0  0  0  0  0  0  0  0  0  0  0
   -3.1570   -7.0990    0.0000 O   0  0  0  0  0  0  0  0  0  0  0  0
   -3.6971   -9.6403    0.0000 O   0  0  0  0  0  0  0  0  0  0  0  0
  2  1  1  1
  2  3  1  0
  3  4  1  0
  4  5  1  0
  4  6  1  0
  2  7  1  0
  7  8  2  0
  7  9  1  0
  9 10  1  0
 10 11  1  1
 11 12  1  0
 12 13  1  0
 12 14  1  0
 10 15  1  0
 15 16  2  0
 15 17  1  0
 17 18  1  0
 18 19  1  0
 19 20  1  0
 20 21  1  0
 21 22  1  6
 22 23  2  0
 22 24  1  0
 24 25  1  0
 26 24  1  1
 26 27  1  0
 27 28  1  0
 27 29  1  1
 26 30  1  0
 30 31  2  0
 30 32  1  0
 32 33  1  0
 33 34  1  1
 34 35  1  0
 35 36  3  0
 33 37  1  0
 37 38  2  0
 37 39  1  0
 21 17  1  0
M  END
$$$$

     RDKit          2D

 39 39  0  0  0  0  0  0  0  0999 V2000
    1.2760    5.1962    0.0000 N   0  0  0  0  0  0  0  0  0  0  0  0
    2.7760    5.1962    0.0000 C   0  0  0  0  0  0  0  0  0  0  0  0
    3.5260    6.4952    0.0000 C   0  0  0  0  0  0  0  0  0  0  0  0
    2.7760    7.7942    0.0000 C   0  0  0  0  0  0  0  0  0  0  0  0
    3.5260    9.0933    0.0000 C   0  0  0  0  0  0  0  0  0  0  0  0
    1.2760    7.7942    0.0000 C   0  0  0  0  0  0  0  0  0  0  0  0
    3.5260    3.8971    0.0000 C   0  0  0  0  0  0  0  0  0  0  0  0
    5.0260    3.8971    0.0000 O   0  0  0  0  0  0  0  0  0  0  0  0
    2.7760    2.5981    0.0000 N   0  0  0  0  0  0  0  0  0  0  0  0
    3.5260    1.2990    0.0000 C   0  0  0  0  0  0  0  0  0  0  0  0
    5.0260    1.2990    0.0000 C   0  0  0  0  0  0  0  0  0  0  0  0
    5.7760    0.0000    0.0000 C   0  0  0  0  0  0  0  0  0  0  0  0
    7.2760    0.0000    0.0000 C   0  0  0  0  0  0  0  0  0  0  0  0
    5.0260   -1.2990    0.0000 C   0  0  0  0  0  0  0  0  0  0  0  0
    2.7760    0.0000    0.0000 C   0  0  0  0  0  0  0  0  0  0  0  0
    3.5260   -1.2990    0.0000 O   0  0  0  0  0  0  0  0  0  0  0  0
    1.2760    0.0000    0.0000 N   0  0  0  0  0  0  0  0  0  0  0  0
    0.3943    1.2135    0.0000 C   0  0  0  0  0  0  0  0  0  0  0  0
   -1.0323    0.7500    0.0000 C   0  0  0  0  0  0  0  0  0  0  0  0
   -1.0323   -0.7500    0.0000 C   0  0  0  0  0  0  0  0  0  0  0  0
    0.3943   -1.2135    0.0000 C   0  0  0  0  0  0  0  0  0  0  0  0
    0.8578   -2.6401    0.0000 C   0  0  0  0  0  0  0  0  0  0  0  0
    2.3250   -2.9520    0.0000 O   0  0  0  0  0  0  0  0  0  0  0  0
   -0.1459   -3.7548    0.0000 N   0  0  0  0  0  0  0  0  0  0  0  0
   -1.6131   -3.4430    0.0000 C   0  0  0  0  0  0  0  0  0  0  0  0
    0.3177   -5.1814    0.0000 C   0  0  0  0  0  0  0  0  0  0  0  0
    1.7849   -5.4933    0.0000 C   0  0  0  0  0  0  0  0  0  0  0  0
    2.2484   -6.9199    0.0000 O   0  0  0  0  0  0  0  0  0  0  0  0
    2.7886   -4.3786    0.0000 C   0  0  0  0  0  0  0  0  0  0  0  0
   -0.6860   -6.2961    0.0000 C   0  0  0  0  0  0  0  0  0  0  0  0
   -2.1533   -5.9843    0.0000 O   0  0  0  0  0  0  0  0  0  0  0  0
   -0.2225   -7.7227    0.0000 N   0  0  0  0  0  0  0  0  0  0  0  0
   -1.2262   -8.8374    0.0000 C   0  0  0  0  0  0  0  0  0  0  0  0
   -0.7627  -10.2640    0.0000 C   0  0  0  0  0  0  0  0  0  0  0  0
   -1.7664  -11.3787    0.0000 C   0  0  0  0  0  0  0  0  0  0  0  0
   -2.7701  -12.4935    0.0000 C   0  0  0  0  0  0  0  0  0  0  0  0
   -2.6934   -8.5256    0.0000 C   0  0  0  0  0  0  0  0  0  0  0  0
   -3.1570   -7.0990    0.0000 O   0  0  0  0  0  0  0  0  0  0  0  0
   -3.6971   -9.6403    0.0000 O   0  0  0  0  0  0  0  0  0  0  0  0
  2  1  1  6
  2  3  1  0
  3  4  1  0
  4  5  1  0
  4  6  1  0
  2  7  1  0
  7  8  2  0
  7  9  1  0
  9 10  1  0
 10 11  1  1
 11 12  1  0
 12 13  1  0
 12 14  1  0
 10 15  1  0
 15 16  2  0
 15 17  1  0
 17 18  1  0
 18 19  1  0
 19 20  1  0
 20 21  1  0
 21 22  1  6
 22 23  2  0
 22 24  1  0
 24 25  1  0
 26 24  1  1
 26 27  1  0
 27 28  1  0
 27 29  1  1
 26 30  1  0
 30 31  2  0
 30 32  1  0
 32 33  1  0
 33 34  1  1
 34 35  1  0
 35 36  3  0
 33 37  1  0
 37 38  2  0
 37 39  1  0
 21 17  1  0
M  END
$$$$

     RDKit          2D

 40 40  0  0  0  0  0  0  0  0999 V2000
    1.2760    5.1962    0.0000 N   0  0  0  0  0  0  0  0  0  0  0  0
    0.5260    6.4952    0.0000 C   0  0  0  0  0  0  0  0  0  0  0  0
    2.7760    5.1962    0.0000 C   0  0  0  0  0  0  0  0  0  0  0  0
    3.5260    6.4952    0.0000 C   0  0  0  0  0  0  0  0  0  0  0  0
    2.7760    7.7942    0.0000 C   0  0  0  0  0  0  0  0  0  0  0  0
    3.5260    9.0933    0.0000 C   0  0  0  0  0  0  0  0  0  0  0  0
    1.2760    7.7942    0.0000 C   0  0  0  0  0  0  0  0  0  0  0  0
    3.5260    3.8971    0.0000 C   0  0  0  0  0  0  0  0  0  0  0  0
    5.0260    3.8971    0.0000 O   0  0  0  0  0  0  0  0  0  0  0  0
    2.7760    2.5981    0.0000 N   0  0  0  0  0  0  0  0  0  0  0  0
    3.5260    1.2990    0.0000 C   0  0  0  0  0  0  0  0  0  0  0  0
    5.0260    1.2990    0.0000 C   0  0  0  0  0  0  0  0  0  0  0  0
    5.7760    0.0000    0.0000 C   0  0  0  0  0  0  0  0  0  0  0  0
    7.2760    0.0000    0.0000 C   0  0  0  0  0  0  0  0  0  0  0  0
    5.0260   -1.2990    0.0000 C   0  0  0  0  0  0  0  0  0  0  0  0
    2.7760    0.0000    0.0000 C   0  0  0  0  0  0  0  0  0  0  0  0
    3.5260   -1.2990    0.0000 O   0  0  0  0  0  0  0  0  0  0  0  0
    1.2760    0.0000    0.0000 N   0  0  0  0  0  0  0  0  0  0  0  0
    0.3943    1.2135    0.0000 C   0  0  0  0  0  0  0  0  0  0  0  0
   -1.0323    0.7500    0.0000 C   0  0  0  0  0  0  0  0  0  0  0  0
   -1.0323   -0.7500    0.0000 C   0  0  0  0  0  0  0  0  0  0  0  0
    0.3943   -1.2135    0.0000 C   0  0  0  0  0  0  0  0  0  0  0  0
    0.8578   -2.6401    0.0000 C   0  0  0  0  0  0  0  0  0  0  0  0
    2.3250   -2.9520    0.0000 O   0  0  0  0  0  0  0  0  0  0  0  0
   -0.1459   -3.7548    0.0000 N   0  0  0  0  0  0  0  0  0  0  0  0
   -1.6131   -3.4430    0.0000 C   0  0  0  0  0  0  0  0  0  0  0  0
    0.3177   -5.1814    0.0000 C   0  0  0  0  0  0  0  0  0  0  0  0
    1.7849   -5.4933    0.0000 C   0  0  0  0  0  0  0  0  0  0  0  0
    2.2484   -6.9199    0.0000 O   0  0  0  0  0  0  0  0  0  0  0  0
    2.7886   -4.3786    0.0000 C   0  0  0  0  0  0  0  0  0  0  0  0
   -0.6860   -6.2961    0.0000 C   0  0  0  0  0  0  0  0  0  0  0  0
   -2.1533   -5.9843    0.0000 O   0  0  0  0  0  0  0  0  0  0  0  0
   -0.2225   -7.7227    0.0000 N   0  0  0  0  0  0  0  0  0  0  0  0
   -1.2262   -8.8374    0.0000 C   0  0  0  0  0  0  0  0  0  0  0  0
   -0.7627  -10.2640    0.0000 C   0  0  0  0  0  0  0  0  0  0  0  0
   -1.7664  -11.3787    0.0000 C   0  0  0  0  0  0  0  0  0  0  0  0
   -2.7701  -12.4935    0.0000 C   0  0  0  0  0  0  0  0  0  0  0  0
   -2.6934   -8.5256    0.0000 C   0  0  0  0  0  0  0  0  0  0  0  0
   -3.1570   -7.0990    0.0000 O   0  0  0  0  0  0  0  0  0  0  0  0
   -3.6971   -9.6403    0.0000 O   0  0  0  0  0  0  0  0  0  0  0  0
  1  2  1  0
  1  3  1  0
  3  4  1  1
  4  5  1  0
  5  6  1  0
  5  7  1  0
  3  8  1  0
  8  9  2  0
  8 10  1  0
 10 11  1  0
 11 12  1  1
 12 13  1  0
 13 14  1  0
 13 15  1  0
 11 16  1  0
 16 17  2  0
 16 18  1  0
 18 19  1  0
 19 20  1  0
 20 21  1  0
 21 22  1  0
 22 23  1  6
 23 24  2  0
 23 25  1  0
 25 26  1  0
 27 25  1  1
 27 28  1  0
 28 29  1  0
 28 30  1  1
 27 31  1  0
 31 32  2  0
 31 33  1  0
 33 34  1  0
 34 35  1  1
 35 36  1  0
 36 37  3  0
 34 38  1  0
 38 39  2  0
 38 40  1  0
 22 18  1  0
M  END
$$$$

     RDKit          2D

 40 40  0  0  0  0  0  0  0  0999 V2000
    1.2760    5.1962    0.0000 N   0  0  0  0  0  0  0  0  0  0  0  0
    0.5260    6.4952    0.0000 C   0  0  0  0  0  0  0  0  0  0  0  0
    2.7760    5.1962    0.0000 C   0  0  0  0  0  0  0  0  0  0  0  0
    3.5260    6.4952    0.0000 C   0  0  0  0  0  0  0  0  0  0  0  0
    2.7760    7.7942    0.0000 C   0  0  0  0  0  0  0  0  0  0  0  0
    3.5260    9.0933    0.0000 C   0  0  0  0  0  0  0  0  0  0  0  0
    1.2760    7.7942    0.0000 C   0  0  0  0  0  0  0  0  0  0  0  0
    3.5260    3.8971    0.0000 C   0  0  0  0  0  0  0  0  0  0  0  0
    5.0260    3.8971    0.0000 O   0  0  0  0  0  0  0  0  0  0  0  0
    2.7760    2.5981    0.0000 N   0  0  0  0  0  0  0  0  0  0  0  0
    3.5260    1.2990    0.0000 C   0  0  0  0  0  0  0  0  0  0  0  0
    5.0260    1.2990    0.0000 C   0  0  0  0  0  0  0  0  0  0  0  0
    5.7760    0.0000    0.0000 C   0  0  0  0  0  0  0  0  0  0  0  0
    7.2760    0.0000    0.0000 C   0  0  0  0  0  0  0  0  0  0  0  0
    5.0260   -1.2990    0.0000 C   0  0  0  0  0  0  0  0  0  0  0  0
    2.7760    0.0000    0.0000 C   0  0  0  0  0  0  0  0  0  0  0  0
    3.5260   -1.2990    0.0000 O   0  0  0  0  0  0  0  0  0  0  0  0
    1.2760    0.0000    0.0000 N   0  0  0  0  0  0  0  0  0  0  0  0
    0.3943    1.2135    0.0000 C   0  0  0  0  0  0  0  0  0  0  0  0
   -1.0323    0.7500    0.0000 C   0  0  0  0  0  0  0  0  0  0  0  0
   -1.0323   -0.7500    0.0000 C   0  0  0  0  0  0  0  0  0  0  0  0
    0.3943   -1.2135    0.0000 C   0  0  0  0  0  0  0  0  0  0  0  0
    0.8578   -2.6401    0.0000 C   0  0  0  0  0  0  0  0  0  0  0  0
    2.3250   -2.9520    0.0000 O   0  0  0  0  0  0  0  0  0  0  0  0
   -0.1459   -3.7548    0.0000 N   0  0  0  0  0  0  0  0  0  0  0  0
   -1.6131   -3.4430    0.0000 C   0  0  0  0  0  0  0  0  0  0  0  0
    0.3177   -5.1814    0.0000 C   0  0  0  0  0  0  0  0  0  0  0  0
    1.7849   -5.4933    0.0000 C   0  0  0  0  0  0  0  0  0  0  0  0
    2.2484   -6.9199    0.0000 O   0  0  0  0  0  0  0  0  0  0  0  0
    2.7886   -4.3786    0.0000 C   0  0  0  0  0  0  0  0  0  0  0  0
   -0.6860   -6.2961    0.0000 C   0  0  0  0  0  0  0  0  0  0  0  0
   -2.1533   -5.9843    0.0000 O   0  0  0  0  0  0  0  0  0  0  0  0
   -0.2225   -7.7227    0.0000 N   0  0  0  0  0  0  0  0  0  0  0  0
   -1.2262   -8.8374    0.0000 C   0  0  0  0  0  0  0  0  0  0  0  0
   -0.7627  -10.2640    0.0000 C   0  0  0  0  0  0  0  0  0  0  0  0
   -1.7664  -11.3787    0.0000 C   0  0  0  0  0  0  0  0  0  0  0  0
   -2.7701  -12.4935    0.0000 C   0  0  0  0  0  0  0  0  0  0  0  0
   -2.6934   -8.5256    0.0000 C   0  0  0  0  0  0  0  0  0  0  0  0
   -3.1570   -7.0990    0.0000 O   0  0  0  0  0  0  0  0  0  0  0  0
   -3.6971   -9.6403    0.0000 O   0  0  0  0  0  0  0  0  0  0  0  0
  1  2  1  0
  1  3  1  0
  3  4  1  6
  4  5  1  0
  5  6  1  0
  5  7  1  0
  3  8  1  0
  8  9  2  0
  8 10  1  0
 10 11  1  0
 11 12  1  1
 12 13  1  0
 13 14  1  0
 13 15  1  0
 11 16  1  0
 16 17  2  0
 16 18  1  0
 18 19  1  0
 19 20  1  0
 20 21  1  0
 21 22  1  0
 22 23  1  6
 23 24  2  0
 23 25  1  0
 25 26  1  0
 27 25  1  1
 27 28  1  0
 28 29  1  0
 28 30  1  1
 27 31  1  0
 31 32  2  0
 31 33  1  0
 33 34  1  0
 34 35  1  1
 35 36  1  0
 36 37  3  0
 34 38  1  0
 38 39  2  0
 38 40  1  0
 22 18  1  0
M  END
$$$$

     RDKit          2D

 39 39  0  0  0  0  0  0  0  0999 V2000
    1.2760    5.1962    0.0000 N   0  0  0  0  0  0  0  0  0  0  0  0
    2.7760    5.1962    0.0000 C   0  0  0  0  0  0  0  0  0  0  0  0
    3.5260    6.4952    0.0000 C   0  0  0  0  0  0  0  0  0  0  0  0
    2.7760    7.7942    0.0000 C   0  0  0  0  0  0  0  0  0  0  0  0
    3.5260    9.0933    0.0000 C   0  0  0  0  0  0  0  0  0  0  0  0
    1.2760    7.7942    0.0000 C   0  0  0  0  0  0  0  0  0  0  0  0
    3.5260    3.8971    0.0000 C   0  0  0  0  0  0  0  0  0  0  0  0
    5.0260    3.8971    0.0000 O   0  0  0  0  0  0  0  0  0  0  0  0
    2.7760    2.5981    0.0000 N   0  0  0  0  0  0  0  0  0  0  0  0
    3.5260    1.2990    0.0000 C   0  0  0  0  0  0  0  0  0  0  0  0
    5.0260    1.2990    0.0000 C   0  0  0  0  0  0  0  0  0  0  0  0
    5.7760    0.0000    0.0000 C   0  0  0  0  0  0  0  0  0  0  0  0
    7.2760    0.0000    0.0000 C   0  0  0  0  0  0  0  0  0  0  0  0
    5.0260   -1.2990    0.0000 C   0  0  0  0  0  0  0  0  0  0  0  0
    2.7760    0.0000    0.0000 C   0  0  0  0  0  0  0  0  0  0  0  0
    3.5260   -1.2990    0.0000 O   0  0  0  0  0  0  0  0  0  0  0  0
    1.2760    0.0000    0.0000 N   0  0  0  0  0  0  0  0  0  0  0  0
    0.3943    1.2135    0.0000 C   0  0  0  0  0  0  0  0  0  0  0  0
   -1.0323    0.7500    0.0000 C   0  0  0  0  0  0  0  0  0  0  0  0
   -1.0323   -0.7500    0.0000 C   0  0  0  0  0  0  0  0  0  0  0  0
    0.3943   -1.2135    0.0000 C   0  0  0  0  0  0  0  0  0  0  0  0
    0.8578   -2.6401    0.0000 C   0  0  0  0  0  0  0  0  0  0  0  0
    2.3250   -2.9520    0.0000 O   0  0  0  0  0  0  0  0  0  0  0  0
   -0.1459   -3.7548    0.0000 N   0  0  0  0  0  0  0  0  0  0  0  0
   -1.6131   -3.4430    0.0000 C   0  0  0  0  0  0  0  0  0  0  0  0
    0.3177   -5.1814    0.0000 C   0  0  0  0  0  0  0  0  0  0  0  0
    1.7849   -5.4933    0.0000 C   0  0  0  0  0  0  0  0  0  0  0  0
    2.2484   -6.9199    0.0000 O   0  0  0  0  0  0  0  0  0  0  0  0
    2.7886   -4.3786    0.0000 C   0  0  0  0  0  0  0  0  0  0  0  0
   -0.6860   -6.2961    0.0000 C   0  0  0  0  0  0  0  0  0  0  0  0
   -2.1533   -5.9843    0.0000 O   0  0  0  0  0  0  0  0  0  0  0  0
   -0.2225   -7.7227    0.0000 N   0  0  0  0  0  0  0  0  0  0  0  0
   -1.2262   -8.8374    0.0000 C   0  0  0  0  0  0  0  0  0  0  0  0
   -0.7627  -10.2640    0.0000 C   0  0  0  0  0  0  0  0  0  0  0  0
   -1.7664  -11.3787    0.0000 C   0  0  0  0  0  0  0  0  0  0  0  0
   -2.7701  -12.4935    0.0000 C   0  0  0  0  0  0  0  0  0  0  0  0
   -2.6934   -8.5256    0.0000 C   0  0  0  0  0  0  0  0  0  0  0  0
   -3.1570   -7.0990    0.0000 O   0  0  0  0  0  0  0  0  0  0  0  0
   -3.6971   -9.6403    0.0000 O   0  0  0  0  0  0  0  0  0  0  0  0
  2  1  1  1
  2  3  1  0
  3  4  1  0
  4  5  1  0
  4  6  1  0
  2  7  1  0
  7  8  2  0
  7  9  1  0
  9 10  1  0
 10 11  1  6
 11 12  1  0
 12 13  1  0
 12 14  1  0
 10 15  1  0
 15 16  2  0
 15 17  1  0
 17 18  1  0
 18 19  1  0
 19 20  1  0
 20 21  1  0
 21 22  1  6
 22 23  2  0
 22 24  1  0
 24 25  1  0
 26 24  1  1
 26 27  1  0
 27 28  1  0
 27 29  1  1
 26 30  1  0
 30 31  2  0
 30 32  1  0
 32 33  1  0
 33 34  1  1
 34 35  1  0
 35 36  3  0
 33 37  1  0
 37 38  2  0
 37 39  1  0
 21 17  1  0
M  END
$$$$

     RDKit          2D

 39 39  0  0  0  0  0  0  0  0999 V2000
    1.2760    5.1962    0.0000 N   0  0  0  0  0  0  0  0  0  0  0  0
    2.7760    5.1962    0.0000 C   0  0  0  0  0  0  0  0  0  0  0  0
    3.5260    6.4952    0.0000 C   0  0  0  0  0  0  0  0  0  0  0  0
    2.7760    7.7942    0.0000 C   0  0  0  0  0  0  0  0  0  0  0  0
    3.5260    9.0933    0.0000 C   0  0  0  0  0  0  0  0  0  0  0  0
    1.2760    7.7942    0.0000 C   0  0  0  0  0  0  0  0  0  0  0  0
    3.5260    3.8971    0.0000 C   0  0  0  0  0  0  0  0  0  0  0  0
    5.0260    3.8971    0.0000 O   0  0  0  0  0  0  0  0  0  0  0  0
    2.7760    2.5981    0.0000 N   0  0  0  0  0  0  0  0  0  0  0  0
    3.5260    1.2990    0.0000 C   0  0  0  0  0  0  0  0  0  0  0  0
    5.0260    1.2990    0.0000 C   0  0  0  0  0  0  0  0  0  0  0  0
    5.7760    0.0000    0.0000 C   0  0  0  0  0  0  0  0  0  0  0  0
    7.2760    0.0000    0.0000 C   0  0  0  0  0  0  0  0  0  0  0  0
    5.0260   -1.2990    0.0000 C   0  0  0  0  0  0  0  0  0  0  0  0
    2.7760    0.0000    0.0000 C   0  0  0  0  0  0  0  0  0  0  0  0
    3.5260   -1.2990    0.0000 O   0  0  0  0  0  0  0  0  0  0  0  0
    1.2760    0.0000    0.0000 N   0  0  0  0  0  0  0  0  0  0  0  0
    0.3943    1.2135    0.0000 C   0  0  0  0  0  0  0  0  0  0  0  0
   -1.0323    0.7500    0.0000 C   0  0  0  0  0  0  0  0  0  0  0  0
   -1.0323   -0.7500    0.0000 C   0  0  0  0  0  0  0  0  0  0  0  0
    0.3943   -1.2135    0.0000 C   0  0  0  0  0  0  0  0  0  0  0  0
    0.8578   -2.6401    0.0000 C   0  0  0  0  0  0  0  0  0  0  0  0
    2.3250   -2.9520    0.0000 O   0  0  0  0  0  0  0  0  0  0  0  0
   -0.1459   -3.7548    0.0000 N   0  0  0  0  0  0  0  0  0  0  0  0
   -1.6131   -3.4430    0.0000 C   0  0  0  0  0  0  0  0  0  0  0  0
    0.3177   -5.1814    0.0000 C   0  0  0  0  0  0  0  0  0  0  0  0
    1.7849   -5.4933    0.0000 C   0  0  0  0  0  0  0  0  0  0  0  0
    2.2484   -6.9199    0.0000 O   0  0  0  0  0  0  0  0  0  0  0  0
    2.7886   -4.3786    0.0000 C   0  0  0  0  0  0  0  0  0  0  0  0
   -0.6860   -6.2961    0.0000 C   0  0  0  0  0  0  0  0  0  0  0  0
   -2.1533   -5.9843    0.0000 O   0  0  0  0  0  0  0  0  0  0  0  0
   -0.2225   -7.7227    0.0000 N   0  0  0  0  0  0  0  0  0  0  0  0
   -1.2262   -8.8374    0.0000 C   0  0  0  0  0  0  0  0  0  0  0  0
   -0.7627  -10.2640    0.0000 C   0  0  0  0  0  0  0  0  0  0  0  0
   -1.7664  -11.3787    0.0000 C   0  0  0  0  0  0  0  0  0  0  0  0
   -2.7701  -12.4935    0.0000 C   0  0  0  0  0  0  0  0  0  0  0  0
   -2.6934   -8.5256    0.0000 C   0  0  0  0  0  0  0  0  0  0  0  0
   -3.1570   -7.0990    0.0000 O   0  0  0  0  0  0  0  0  0  0  0  0
   -3.6971   -9.6403    0.0000 O   0  0  0  0  0  0  0  0  0  0  0  0
  2  1  1  6
  2  3  1  0
  3  4  1  0
  4  5  1  0
  4  6  1  0
  2  7  1  0
  7  8  2  0
  7  9  1  0
  9 10  1  0
 10 11  1  6
 11 12  1  0
 12 13  1  0
 12 14  1  0
 10 15  1  0
 15 16  2  0
 15 17  1  0
 17 18  1  0
 18 19  1  0
 19 20  1  0
 20 21  1  0
 21 22  1  6
 22 23  2  0
 22 24  1  0
 24 25  1  0
 26 24  1  1
 26 27  1  0
 27 28  1  0
 27 29  1  1
 26 30  1  0
 30 31  2  0
 30 32  1  0
 32 33  1  0
 33 34  1  1
 34 35  1  0
 35 36  3  0
 33 37  1  0
 37 38  2  0
 37 39  1  0
 21 17  1  0
M  END
$$$$

     RDKit          2D

 40 40  0  0  0  0  0  0  0  0999 V2000
    1.2760    5.1962    0.0000 N   0  0  0  0  0  0  0  0  0  0  0  0
    0.5260    6.4952    0.0000 C   0  0  0  0  0  0  0  0  0  0  0  0
    2.7760    5.1962    0.0000 C   0  0  0  0  0  0  0  0  0  0  0  0
    3.5260    6.4952    0.0000 C   0  0  0  0  0  0  0  0  0  0  0  0
    2.7760    7.7942    0.0000 C   0  0  0  0  0  0  0  0  0  0  0  0
    3.5260    9.0933    0.0000 C   0  0  0  0  0  0  0  0  0  0  0  0
    1.2760    7.7942    0.0000 C   0  0  0  0  0  0  0  0  0  0  0  0
    3.5260    3.8971    0.0000 C   0  0  0  0  0  0  0  0  0  0  0  0
    5.0260    3.8971    0.0000 O   0  0  0  0  0  0  0  0  0  0  0  0
    2.7760    2.5981    0.0000 N   0  0  0  0  0  0  0  0  0  0  0  0
    3.5260    1.2990    0.0000 C   0  0  0  0  0  0  0  0  0  0  0  0
    5.0260    1.2990    0.0000 C   0  0  0  0  0  0  0  0  0  0  0  0
    5.7760    0.0000    0.0000 C   0  0  0  0  0  0  0  0  0  0  0  0
    7.2760    0.0000    0.0000 C   0  0  0  0  0  0  0  0  0  0  0  0
    5.0260   -1.2990    0.0000 C   0  0  0  0  0  0  0  0  0  0  0  0
    2.7760    0.0000    0.0000 C   0  0  0  0  0  0  0  0  0  0  0  0
    3.5260   -1.2990    0.0000 O   0  0  0  0  0  0  0  0  0  0  0  0
    1.2760    0.0000    0.0000 N   0  0  0  0  0  0  0  0  0  0  0  0
    0.3943    1.2135    0.0000 C   0  0  0  0  0  0  0  0  0  0  0  0
   -1.0323    0.7500    0.0000 C   0  0  0  0  0  0  0  0  0  0  0  0
   -1.0323   -0.7500    0.0000 C   0  0  0  0  0  0  0  0  0  0  0  0
    0.3943   -1.2135    0.0000 C   0  0  0  0  0  0  0  0  0  0  0  0
    0.8578   -2.6401    0.0000 C   0  0  0  0  0  0  0  0  0  0  0  0
    2.3250   -2.9520    0.0000 O   0  0  0  0  0  0  0  0  0  0  0  0
   -0.1459   -3.7548    0.0000 N   0  0  0  0  0  0  0  0  0  0  0  0
   -1.6131   -3.4430    0.0000 C   0  0  0  0  0  0  0  0  0  0  0  0
    0.3177   -5.1814    0.0000 C   0  0  0  0  0  0  0  0  0  0  0  0
    1.7849   -5.4933    0.0000 C   0  0  0  0  0  0  0  0  0  0  0  0
    2.2484   -6.9199    0.0000 O   0  0  0  0  0  0  0  0  0  0  0  0
    2.7886   -4.3786    0.0000 C   0  0  0  0  0  0  0  0  0  0  0  0
   -0.6860   -6.2961    0.0000 C   0  0  0  0  0  0  0  0  0  0  0  0
   -2.1533   -5.9843    0.0000 O   0  0  0  0  0  0  0  0  0  0  0  0
   -0.2225   -7.7227    0.0000 N   0  0  0  0  0  0  0  0  0  0  0  0
   -1.2262   -8.8374    0.0000 C   0  0  0  0  0  0  0  0  0  0  0  0
   -0.7627  -10.2640    0.0000 C   0  0  0  0  0  0  0  0  0  0  0  0
   -1.7664  -11.3787    0.0000 C   0  0  0  0  0  0  0  0  0  0  0  0
   -2.7701  -12.4935    0.0000 C   0  0  0  0  0  0  0  0  0  0  0  0
   -2.6934   -8.5256    0.0000 C   0  0  0  0  0  0  0  0  0  0  0  0
   -3.1570   -7.0990    0.0000 O   0  0  0  0  0  0  0  0  0  0  0  0
   -3.6971   -9.6403    0.0000 O   0  0  0  0  0  0  0  0  0  0  0  0
  1  2  1  0
  1  3  1  0
  3  4  1  1
  4  5  1  0
  5  6  1  0
  5  7  1  0
  3  8  1  0
  8  9  2  0
  8 10  1  0
 10 11  1  0
 11 12  1  6
 12 13  1  0
 13 14  1  0
 13 15  1  0
 11 16  1  0
 16 17  2  0
 16 18  1  0
 18 19  1  0
 19 20  1  0
 20 21  1  0
 21 22  1  0
 22 23  1  6
 23 24  2  0
 23 25  1  0
 25 26  1  0
 27 25  1  1
 27 28  1  0
 28 29  1  0
 28 30  1  1
 27 31  1  0
 31 32  2  0
 31 33  1  0
 33 34  1  0
 34 35  1  1
 35 36  1  0
 36 37  3  0
 34 38  1  0
 38 39  2  0
 38 40  1  0
 22 18  1  0
M  END
$$$$

     RDKit          2D

 40 40  0  0  0  0  0  0  0  0999 V2000
    1.2760    5.1962    0.0000 N   0  0  0  0  0  0  0  0  0  0  0  0
    0.5260    6.4952    0.0000 C   0  0  0  0  0  0  0  0  0  0  0  0
    2.7760    5.1962    0.0000 C   0  0  0  0  0  0  0  0  0  0  0  0
    3.5260    6.4952    0.0000 C   0  0  0  0  0  0  0  0  0  0  0  0
    2.7760    7.7942    0.0000 C   0  0  0  0  0  0  0  0  0  0  0  0
    3.5260    9.0933    0.0000 C   0  0  0  0  0  0  0  0  0  0  0  0
    1.2760    7.7942    0.0000 C   0  0  0  0  0  0  0  0  0  0  0  0
    3.5260    3.8971    0.0000 C   0  0  0  0  0  0  0  0  0  0  0  0
    5.0260    3.8971    0.0000 O   0  0  0  0  0  0  0  0  0  0  0  0
    2.7760    2.5981    0.0000 N   0  0  0  0  0  0  0  0  0  0  0  0
    3.5260    1.2990    0.0000 C   0  0  0  0  0  0  0  0  0  0  0  0
    5.0260    1.2990    0.0000 C   0  0  0  0  0  0  0  0  0  0  0  0
    5.7760    0.0000    0.0000 C   0  0  0  0  0  0  0  0  0  0  0  0
    7.2760    0.0000    0.0000 C   0  0  0  0  0  0  0  0  0  0  0  0
    5.0260   -1.2990    0.0000 C   0  0  0  0  0  0  0  0  0  0  0  0
    2.7760    0.0000    0.0000 C   0  0  0  0  0  0  0  0  0  0  0  0
    3.5260   -1.2990    0.0000 O   0  0  0  0  0  0  0  0  0  0  0  0
    1.2760    0.0000    0.0000 N   0  0  0  0  0  0  0  0  0  0  0  0
    0.3943    1.2135    0.0000 C   0  0  0  0  0  0  0  0  0  0  0  0
   -1.0323    0.7500    0.0000 C   0  0  0  0  0  0  0  0  0  0  0  0
   -1.0323   -0.7500    0.0000 C   0  0  0  0  0  0  0  0  0  0  0  0
    0.3943   -1.2135    0.0000 C   0  0  0  0  0  0  0  0  0  0  0  0
    0.8578   -2.6401    0.0000 C   0  0  0  0  0  0  0  0  0  0  0  0
    2.3250   -2.9520    0.0000 O   0  0  0  0  0  0  0  0  0  0  0  0
   -0.1459   -3.7548    0.0000 N   0  0  0  0  0  0  0  0  0  0  0  0
   -1.6131   -3.4430    0.0000 C   0  0  0  0  0  0  0  0  0  0  0  0
    0.3177   -5.1814    0.0000 C   0  0  0  0  0  0  0  0  0  0  0  0
    1.7849   -5.4933    0.0000 C   0  0  0  0  0  0  0  0  0  0  0  0
    2.2484   -6.9199    0.0000 O   0  0  0  0  0  0  0  0  0  0  0  0
    2.7886   -4.3786    0.0000 C   0  0  0  0  0  0  0  0  0  0  0  0
   -0.6860   -6.2961    0.0000 C   0  0  0  0  0  0  0  0  0  0  0  0
   -2.1533   -5.9843    0.0000 O   0  0  0  0  0  0  0  0  0  0  0  0
   -0.2225   -7.7227    0.0000 N   0  0  0  0  0  0  0  0  0  0  0  0
   -1.2262   -8.8374    0.0000 C   0  0  0  0  0  0  0  0  0  0  0  0
   -0.7627  -10.2640    0.0000 C   0  0  0  0  0  0  0  0  0  0  0  0
   -1.7664  -11.3787    0.0000 C   0  0  0  0  0  0  0  0  0  0  0  0
   -2.7701  -12.4935    0.0000 C   0  0  0  0  0  0  0  0  0  0  0  0
   -2.6934   -8.5256    0.0000 C   0  0  0  0  0  0  0  0  0  0  0  0
   -3.1570   -7.0990    0.0000 O   0  0  0  0  0  0  0  0  0  0  0  0
   -3.6971   -9.6403    0.0000 O   0  0  0  0  0  0  0  0  0  0  0  0
  1  2  1  0
  1  3  1  0
  3  4  1  6
  4  5  1  0
  5  6  1  0
  5  7  1  0
  3  8  1  0
  8  9  2  0
  8 10  1  0
 10 11  1  0
 11 12  1  6
 12 13  1  0
 13 14  1  0
 13 15  1  0
 11 16  1  0
 16 17  2  0
 16 18  1  0
 18 19  1  0
 19 20  1  0
 20 21  1  0
 21 22  1  0
 22 23  1  6
 23 24  2  0
 23 25  1  0
 25 26  1  0
 27 25  1  1
 27 28  1  0
 28 29  1  0
 28 30  1  1
 27 31  1  0
 31 32  2  0
 31 33  1  0
 33 34  1  0
 34 35  1  1
 35 36  1  0
 36 37  3  0
 34 38  1  0
 38 39  2  0
 38 40  1  0
 22 18  1  0
M  END
$$$$

     RDKit          2D

 40 40  0  0  0  0  0  0  0  0999 V2000
    8.0260    1.2990    0.0000 N   0  0  0  0  0  0  0  0  0  0  0  0
    7.2760    0.0000    0.0000 C   0  0  0  0  0  0  0  0  0  0  0  0
    8.0260   -1.2990    0.0000 C   0  0  0  0  0  0  0  0  0  0  0  0
    9.5260   -1.2990    0.0000 C   0  0  0  0  0  0  0  0  0  0  0  0
   10.2760   -2.5981    0.0000 C   0  0  0  0  0  0  0  0  0  0  0  0
   10.2760    0.0000    0.0000 C   0  0  0  0  0  0  0  0  0  0  0  0
    5.7760    0.0000    0.0000 C   0  0  0  0  0  0  0  0  0  0  0  0
    5.0260   -1.2990    0.0000 O   0  0  0  0  0  0  0  0  0  0  0  0
    5.0260    1.2990    0.0000 N   0  0  0  0  0  0  0  0  0  0  0  0
    5.7760    2.5981    0.0000 C   0  0  0  0  0  0  0  0  0  0  0  0
    3.5260    1.2990    0.0000 C   0  0  0  0  0  0  0  0  0  0  0  0
    2.7760    2.5981    0.0000 C   0  0  0  0  0  0  0  0  0  0  0  0
    3.5260    3.8971    0.0000 C   0  0  0  0  0  0  0  0  0  0  0  0
    2.7760    5.1962    0.0000 C   0  0  0  0  0  0  0  0  0  0  0  0
    5.0260    3.8971    0.0000 C   0  0  0  0  0  0  0  0  0  0  0  0
    2.7760    0.0000    0.0000 C   0  0  0  0  0  0  0  0  0  0  0  0
    3.5260   -1.2990    0.0000 O   0  0  0  0  0  0  0  0  0  0  0  0
    1.2760    0.0000    0.0000 N   0  0  0  0  0  0  0  0  0  0  0  0
    0.3943    1.2135    0.0000 C   0  0  0  0  0  0  0  0  0  0  0  0
   -1.0323    0.7500    0.0000 C   0  0  0  0  0  0  0  0  0  0  0  0
   -1.0323   -0.7500    0.0000 C   0  0  0  0  0  0  0  0  0  0  0  0
    0.3943   -1.2135    0.0000 C   0  0  0  0  0  0  0  0  0  0  0  0
    0.8578   -2.6401    0.0000 C   0  0  0  0  0  0  0  0  0  0  0  0
    2.3250   -2.9520    0.0000 O   0  0  0  0  0  0  0  0  0  0  0  0
   -0.1459   -3.7548    0.0000 N   0  0  0  0  0  0  0  0  0  0  0  0
   -1.6131   -3.4430    0.0000 C   0  0  0  0  0  0  0  0  0  0  0  0
    0.3177   -5.1814    0.0000 C   0  0  0  0  0  0  0  0  0  0  0  0
    1.7849   -5.4933    0.0000 C   0  0  0  0  0  0  0  0  0  0  0  0
    2.2484   -6.9199    0.0000 O   0  0  0  0  0  0  0  0  0  0  0  0
    2.7886   -4.3786    0.0000 C   0  0  0  0  0  0  0  0  0  0  0  0
   -0.6860   -6.2961    0.0000 C   0  0  0  0  0  0  0  0  0  0  0  0
   -2.1533   -5.9843    0.0000 O   0  0  0  0  0  0  0  0  0  0  0  0
   -0.2225   -7.7227    0.0000 N   0  0  0  0  0  0  0  0  0  0  0  0
   -1.2262   -8.8374    0.0000 C   0  0  0  0  0  0  0  0  0  0  0  0
   -0.7627  -10.2640    0.0000 C   0  0  0  0  0  0  0  0  0  0  0  0
   -1.7664  -11.3787    0.0000 C   0  0  0  0  0  0  0  0  0  0  0  0
   -2.7701  -12.4935    0.0000 C   0  0  0  0  0  0  0  0  0  0  0  0
   -2.6934   -8.5256    0.0000 C   0  0  0  0  0  0  0  0  0  0  0  0
   -3.1570   -7.0990    0.0000 O   0  0  0  0  0  0  0  0  0  0  0  0
   -3.6971   -9.6403    0.0000 O   0  0  0  0  0  0  0  0  0  0  0  0
  2  1  1  1
  2  3  1  0
  3  4  1  0
  4  5  1  0
  4  6  1  0
  2  7  1  0
  7  8  2  0
  7  9  1  0
  9 10  1  0
  9 11  1  0
 11 12  1  6
 12 13  1  0
 13 14  1  0
 13 15  1  0
 11 16  1  0
 16 17  2  0
 16 18  1  0
 18 19  1  0
 19 20  1  0
 20 21  1  0
 21 22  1  0
 22 23  1  6
 23 24  2  0
 23 25  1  0
 25 26  1  0
 27 25  1  1
 27 28  1  0
 28 29  1  0
 28 30  1  1
 27 31  1  0
 31 32  2  0
 31 33  1  0
 33 34  1  0
 34 35  1  1
 35 36  1  0
 36 37  3  0
 34 38  1  0
 38 39  2  0
 38 40  1  0
 22 18  1  0
M  END
$$$$

     RDKit          2D

 40 40  0  0  0  0  0  0  0  0999 V2000
    8.0260    1.2990    0.0000 N   0  0  0  0  0  0  0  0  0  0  0  0
    7.2760    0.0000    0.0000 C   0  0  0  0  0  0  0  0  0  0  0  0
    8.0260   -1.2990    0.0000 C   0  0  0  0  0  0  0  0  0  0  0  0
    9.5260   -1.2990    0.0000 C   0  0  0  0  0  0  0  0  0  0  0  0
   10.2760   -2.5981    0.0000 C   0  0  0  0  0  0  0  0  0  0  0  0
   10.2760    0.0000    0.0000 C   0  0  0  0  0  0  0  0  0  0  0  0
    5.7760    0.0000    0.0000 C   0  0  0  0  0  0  0  0  0  0  0  0
    5.0260   -1.2990    0.0000 O   0  0  0  0  0  0  0  0  0  0  0  0
    5.0260    1.2990    0.0000 N   0  0  0  0  0  0  0  0  0  0  0  0
    5.7760    2.5981    0.0000 C   0  0  0  0  0  0  0  0  0  0  0  0
    3.5260    1.2990    0.0000 C   0  0  0  0  0  0  0  0  0  0  0  0
    2.7760    2.5981    0.0000 C   0  0  0  0  0  0  0  0  0  0  0  0
    3.5260    3.8971    0.0000 C   0  0  0  0  0  0  0  0  0  0  0  0
    2.7760    5.1962    0.0000 C   0  0  0  0  0  0  0  0  0  0  0  0
    5.0260    3.8971    0.0000 C   0  0  0  0  0  0  0  0  0  0  0  0
    2.7760    0.0000    0.0000 C   0  0  0  0  0  0  0  0  0  0  0  0
    3.5260   -1.2990    0.0000 O   0  0  0  0  0  0  0  0  0  0  0  0
    1.2760    0.0000    0.0000 N   0  0  0  0  0  0  0  0  0  0  0  0
    0.3943    1.2135    0.0000 C   0  0  0  0  0  0  0  0  0  0  0  0
   -1.0323    0.7500    0.0000 C   0  0  0  0  0  0  0  0  0  0  0  0
   -1.0323   -0.7500    0.0000 C   0  0  0  0  0  0  0  0  0  0  0  0
    0.3943   -1.2135    0.0000 C   0  0  0  0  0  0  0  0  0  0  0  0
    0.8578   -2.6401    0.0000 C   0  0  0  0  0  0  0  0  0  0  0  0
    2.3250   -2.9520    0.0000 O   0  0  0  0  0  0  0  0  0  0  0  0
   -0.1459   -3.7548    0.0000 N   0  0  0  0  0  0  0  0  0  0  0  0
   -1.6131   -3.4430    0.0000 C   0  0  0  0  0  0  0  0  0  0  0  0
    0.3177   -5.1814    0.0000 C   0  0  0  0  0  0  0  0  0  0  0  0
    1.7849   -5.4933    0.0000 C   0  0  0  0  0  0  0  0  0  0  0  0
    2.2484   -6.9199    0.0000 O   0  0  0  0  0  0  0  0  0  0  0  0
    2.7886   -4.3786    0.0000 C   0  0  0  0  0  0  0  0  0  0  0  0
   -0.6860   -6.2961    0.0000 C   0  0  0  0  0  0  0  0  0  0  0  0
   -2.1533   -5.9843    0.0000 O   0  0  0  0  0  0  0  0  0  0  0  0
   -0.2225   -7.7227    0.0000 N   0  0  0  0  0  0  0  0  0  0  0  0
   -1.2262   -8.8374    0.0000 C   0  0  0  0  0  0  0  0  0  0  0  0
   -0.7627  -10.2640    0.0000 C   0  0  0  0  0  0  0  0  0  0  0  0
   -1.7664  -11.3787    0.0000 C   0  0  0  0  0  0  0  0  0  0  0  0
   -2.7701  -12.4935    0.0000 C   0  0  0  0  0  0  0  0  0  0  0  0
   -2.6934   -8.5256    0.0000 C   0  0  0  0  0  0  0  0  0  0  0  0
   -3.1570   -7.0990    0.0000 O   0  0  0  0  0  0  0  0  0  0  0  0
   -3.6971   -9.6403    0.0000 O   0  0  0  0  0  0  0  0  0  0  0  0
  2  1  1  6
  2  3  1  0
  3  4  1  0
  4  5  1  0
  4  6  1  0
  2  7  1  0
  7  8  2  0
  7  9  1  0
  9 10  1  0
  9 11  1  0
 11 12  1  6
 12 13  1  0
 13 14  1  0
 13 15  1  0
 11 16  1  0
 16 17  2  0
 16 18  1  0
 18 19  1  0
 19 20  1  0
 20 21  1  0
 21 22  1  0
 22 23  1  6
 23 24  2  0
 23 25  1  0
 25 26  1  0
 27 25  1  1
 27 28  1  0
 28 29  1  0
 28 30  1  1
 27 31  1  0
 31 32  2  0
 31 33  1  0
 33 34  1  0
 34 35  1  1
 35 36  1  0
 36 37  3  0
 34 38  1  0
 38 39  2  0
 38 40  1  0
 22 18  1  0
M  END
$$$$

     RDKit          2D

 24 23  0  0  0  0  0  0  0  0999 V2000
    1.2990    6.7500    0.0000 N   0  0  0  0  0  0  0  0  0  0  0  0
    2.5981    7.5000    0.0000 C   0  0  0  0  0  0  0  0  0  0  0  0
    2.5981    9.0000    0.0000 C   0  0  0  0  0  0  0  0  0  0  0  0
    1.2990    9.7500    0.0000 C   0  0  0  0  0  0  0  0  0  0  0  0
    1.2990   11.2500    0.0000 C   0  0  0  0  0  0  0  0  0  0  0  0
    0.0000    9.0000    0.0000 C   0  0  0  0  0  0  0  0  0  0  0  0
    3.8971    6.7500    0.0000 C   0  0  0  0  0  0  0  0  0  0  0  0
    5.1962    7.5000    0.0000 O   0  0  0  0  0  0  0  0  0  0  0  0
    3.8971    5.2500    0.0000 N   0  0  0  0  0  0  0  0  0  0  0  0
    2.5981    4.5000    0.0000 C   0  0  0  0  0  0  0  0  0  0  0  0
    5.1962    4.5000    0.0000 C   0  0  0  0  0  0  0  0  0  0  0  0
    6.4952    5.2500    0.0000 C   0  0  0  0  0  0  0  0  0  0  0  0
    6.4952    6.7500    0.0000 O   0  0  0  0  0  0  0  0  0  0  0  0
    7.7942    4.5000    0.0000 C   0  0  0  0  0  0  0  0  0  0  0  0
    5.1962    3.0000    0.0000 C   0  0  0  0  0  0  0  0  0  0  0  0
    3.8971    2.2500    0.0000 O   0  0  0  0  0  0  0  0  0  0  0  0
    6.4952    2.2500    0.0000 N   0  0  0  0  0  0  0  0  0  0  0  0
    6.4952    0.7500    0.0000 C   0  0  0  0  0  0  0  0  0  0  0  0
    7.7942    0.0000    0.0000 C   0  0  0  0  0  0  0  0  0  0  0  0
    7.7942   -1.5000    0.0000 C   0  0  0  0  0  0  0  0  0  0  0  0
    7.7942   -3.0000    0.0000 C   0  0  0  0  0  0  0  0  0  0  0  0
    5.1962   -0.0000    0.0000 C   0  0  0  0  0  0  0  0  0  0  0  0
    3.8971    0.7500    0.0000 O   0  0  0  0  0  0  0  0  0  0  0  0
    5.1962   -1.5000    0.0000 O   0  0  0  0  0  0  0  0  0  0  0  0
  2  1  1  1
  2  3  1  0
  3  4  1  0
  4  5  1  0
  4  6  1  0
  2  7  1  0
  7  8  2  0
  7  9  1  0
  9 10  1  0
 11  9  1  6
 11 12  1  0
 12 13  1  0
 12 14  1  6
 11 15  1  0
 15 16  2  0
 15 17  1  0
 17 18  1  0
 18 19  1  1
 19 20  1  0
 20 21  3  0
 18 22  1  0
 22 23  2  0
 22 24  1  0
M  END
$$$$

     RDKit          2D

 24 23  0  0  0  0  0  0  0  0999 V2000
    1.2990    6.7500    0.0000 N   0  0  0  0  0  0  0  0  0  0  0  0
    2.5981    7.5000    0.0000 C   0  0  0  0  0  0  0  0  0  0  0  0
    2.5981    9.0000    0.0000 C   0  0  0  0  0  0  0  0  0  0  0  0
    1.2990    9.7500    0.0000 C   0  0  0  0  0  0  0  0  0  0  0  0
    1.2990   11.2500    0.0000 C   0  0  0  0  0  0  0  0  0  0  0  0
    0.0000    9.0000    0.0000 C   0  0  0  0  0  0  0  0  0  0  0  0
    3.8971    6.7500    0.0000 C   0  0  0  0  0  0  0  0  0  0  0  0
    5.1962    7.5000    0.0000 O   0  0  0  0  0  0  0  0  0  0  0  0
    3.8971    5.2500    0.0000 N   0  0  0  0  0  0  0  0  0  0  0  0
    2.5981    4.5000    0.0000 C   0  0  0  0  0  0  0  0  0  0  0  0
    5.1962    4.5000    0.0000 C   0  0  0  0  0  0  0  0  0  0  0  0
    6.4952    5.2500    0.0000 C   0  0  0  0  0  0  0  0  0  0  0  0
    6.4952    6.7500    0.0000 O   0  0  0  0  0  0  0  0  0  0  0  0
    7.7942    4.5000    0.0000 C   0  0  0  0  0  0  0  0  0  0  0  0
    5.1962    3.0000    0.0000 C   0  0  0  0  0  0  0  0  0  0  0  0
    3.8971    2.2500    0.0000 O   0  0  0  0  0  0  0  0  0  0  0  0
    6.4952    2.2500    0.0000 N   0  0  0  0  0  0  0  0  0  0  0  0
    6.4952    0.7500    0.0000 C   0  0  0  0  0  0  0  0  0  0  0  0
    7.7942    0.0000    0.0000 C   0  0  0  0  0  0  0  0  0  0  0  0
    7.7942   -1.5000    0.0000 C   0  0  0  0  0  0  0  0  0  0  0  0
    7.7942   -3.0000    0.0000 C   0  0  0  0  0  0  0  0  0  0  0  0
    5.1962   -0.0000    0.0000 C   0  0  0  0  0  0  0  0  0  0  0  0
    3.8971    0.7500    0.0000 O   0  0  0  0  0  0  0  0  0  0  0  0
    5.1962   -1.5000    0.0000 O   0  0  0  0  0  0  0  0  0  0  0  0
  2  1  1  6
  2  3  1  0
  3  4  1  0
  4  5  1  0
  4  6  1  0
  2  7  1  0
  7  8  2  0
  7  9  1  0
  9 10  1  0
 11  9  1  6
 11 12  1  0
 12 13  1  0
 12 14  1  6
 11 15  1  0
 15 16  2  0
 15 17  1  0
 17 18  1  0
 18 19  1  1
 19 20  1  0
 20 21  3  0
 18 22  1  0
 22 23  2  0
 22 24  1  0
M  END
$$$$

     RDKit          2D

 23 22  0  0  0  0  0  0  0  0999 V2000
    5.1962    3.0000    0.0000 N   0  0  0  0  0  0  0  0  0  0  0  0
    5.1962    4.5000    0.0000 C   0  0  0  0  0  0  0  0  0  0  0  0
    6.4952    5.2500    0.0000 C   0  0  0  0  0  0  0  0  0  0  0  0
    7.7942    4.5000    0.0000 C   0  0  0  0  0  0  0  0  0  0  0  0
    6.4952    6.7500    0.0000 C   0  0  0  0  0  0  0  0  0  0  0  0
    3.8971    5.2500    0.0000 C   0  0  0  0  0  0  0  0  0  0  0  0
    3.8971    6.7500    0.0000 O   0  0  0  0  0  0  0  0  0  0  0  0
    2.5981    4.5000    0.0000 N   0  0  0  0  0  0  0  0  0  0  0  0
    2.5981    3.0000    0.0000 C   0  0  0  0  0  0  0  0  0  0  0  0
    1.2990    5.2500    0.0000 C   0  0  0  0  0  0  0  0  0  0  0  0
    1.2990    6.7500    0.0000 C   0  0  0  0  0  0  0  0  0  0  0  0
    2.5981    7.5000    0.0000 O   0  0  0  0  0  0  0  0  0  0  0  0
    0.0000    7.5000    0.0000 C   0  0  0  0  0  0  0  0  0  0  0  0
    0.0000    4.5000    0.0000 C   0  0  0  0  0  0  0  0  0  0  0  0
   -0.0000    3.0000    0.0000 O   0  0  0  0  0  0  0  0  0  0  0  0
   -1.2990    5.2500    0.0000 N   0  0  0  0  0  0  0  0  0  0  0  0
   -2.5981    4.5000    0.0000 C   0  0  0  0  0  0  0  0  0  0  0  0
   -3.8971    5.2500    0.0000 C   0  0  0  0  0  0  0  0  0  0  0  0
   -5.1962    4.5000    0.0000 C   0  0  0  0  0  0  0  0  0  0  0  0
   -6.4952    3.7500    0.0000 C   0  0  0  0  0  0  0  0  0  0  0  0
   -2.5981    3.0000    0.0000 C   0  0  0  0  0  0  0  0  0  0  0  0
   -1.2990    2.2500    0.0000 O   0  0  0  0  0  0  0  0  0  0  0  0
   -3.8971    2.2500    0.0000 O   0  0  0  0  0  0  0  0  0  0  0  0
  2  1  1  6
  2  3  1  0
  3  4  1  0
  3  5  1  0
  2  6  1  0
  6  7  2  0
  6  8  1  0
  8  9  1  0
 10  8  1  1
 10 11  1  0
 11 12  1  0
 11 13  1  1
 10 14  1  0
 14 15  2  0
 14 16  1  0
 16 17  1  0
 17 18  1  6
 18 19  1  0
 19 20  3  0
 17 21  1  0
 21 22  2  0
 21 23  1  0
M  END
$$$$

     RDKit          2D

 23 22  0  0  0  0  0  0  0  0999 V2000
    5.1962    3.0000    0.0000 N   0  0  0  0  0  0  0  0  0  0  0  0
    5.1962    4.5000    0.0000 C   0  0  0  0  0  0  0  0  0  0  0  0
    6.4952    5.2500    0.0000 C   0  0  0  0  0  0  0  0  0  0  0  0
    7.7942    4.5000    0.0000 C   0  0  0  0  0  0  0  0  0  0  0  0
    6.4952    6.7500    0.0000 C   0  0  0  0  0  0  0  0  0  0  0  0
    3.8971    5.2500    0.0000 C   0  0  0  0  0  0  0  0  0  0  0  0
    3.8971    6.7500    0.0000 O   0  0  0  0  0  0  0  0  0  0  0  0
    2.5981    4.5000    0.0000 N   0  0  0  0  0  0  0  0  0  0  0  0
    2.5981    3.0000    0.0000 C   0  0  0  0  0  0  0  0  0  0  0  0
    1.2990    5.2500    0.0000 C   0  0  0  0  0  0  0  0  0  0  0  0
    1.2990    6.7500    0.0000 C   0  0  0  0  0  0  0  0  0  0  0  0
    2.5981    7.5000    0.0000 O   0  0  0  0  0  0  0  0  0  0  0  0
    0.0000    7.5000    0.0000 C   0  0  0  0  0  0  0  0  0  0  0  0
    0.0000    4.5000    0.0000 C   0  0  0  0  0  0  0  0  0  0  0  0
   -0.0000    3.0000    0.0000 O   0  0  0  0  0  0  0  0  0  0  0  0
   -1.2990    5.2500    0.0000 N   0  0  0  0  0  0  0  0  0  0  0  0
   -2.5981    4.5000    0.0000 C   0  0  0  0  0  0  0  0  0  0  0  0
   -3.8971    5.2500    0.0000 C   0  0  0  0  0  0  0  0  0  0  0  0
   -5.1962    4.5000    0.0000 C   0  0  0  0  0  0  0  0  0  0  0  0
   -6.4952    3.7500    0.0000 C   0  0  0  0  0  0  0  0  0  0  0  0
   -2.5981    3.0000    0.0000 C   0  0  0  0  0  0  0  0  0  0  0  0
   -1.2990    2.2500    0.0000 O   0  0  0  0  0  0  0  0  0  0  0  0
   -3.8971    2.2500    0.0000 O   0  0  0  0  0  0  0  0  0  0  0  0
  2  1  1  1
  2  3  1  0
  3  4  1  0
  3  5  1  0
  2  6  1  0
  6  7  2  0
  6  8  1  0
  8  9  1  0
 10  8  1  1
 10 11  1  0
 11 12  1  0
 11 13  1  1
 10 14  1  0
 14 15  2  0
 14 16  1  0
 16 17  1  0
 17 18  1  6
 18 19  1  0
 19 20  3  0
 17 21  1  0
 21 22  2  0
 21 23  1  0
M  END
$$$$

     RDKit          2D

 25 24  0  0  0  0  0  0  0  0999 V2000
    1.2990   -3.7500    0.0000 N   0  0  0  0  0  0  0  0  0  0  0  0
    2.5981   -4.5000    0.0000 C   0  0  0  0  0  0  0  0  0  0  0  0
    1.2990   -2.2500    0.0000 C   0  0  0  0  0  0  0  0  0  0  0  0
   -0.0000   -1.5000    0.0000 C   0  0  0  0  0  0  0  0  0  0  0  0
   -0.0000   -0.0000    0.0000 C   0  0  0  0  0  0  0  0  0  0  0  0
   -1.2990    0.7500    0.0000 C   0  0  0  0  0  0  0  0  0  0  0  0
    1.2990    0.7500    0.0000 C   0  0  0  0  0  0  0  0  0  0  0  0
    2.5981   -1.5000    0.0000 C   0  0  0  0  0  0  0  0  0  0  0  0
    2.5981   -0.0000    0.0000 O   0  0  0  0  0  0  0  0  0  0  0  0
    3.8971   -2.2500    0.0000 N   0  0  0  0  0  0  0  0  0  0  0  0
    3.8971   -3.7500    0.0000 C   0  0  0  0  0  0  0  0  0  0  0  0
    5.1962   -1.5000    0.0000 C   0  0  0  0  0  0  0  0  0  0  0  0
    6.4952   -2.2500    0.0000 C   0  0  0  0  0  0  0  0  0  0  0  0
    6.4952   -3.7500    0.0000 O   0  0  0  0  0  0  0  0  0  0  0  0
    7.7942   -1.5000    0.0000 C   0  0  0  0  0  0  0  0  0  0  0  0
    5.1962    0.0000    0.0000 C   0  0  0  0  0  0  0  0  0  0  0  0
    3.8971    0.7500    0.0000 O   0  0  0  0  0  0  0  0  0  0  0  0
    6.4952    0.7500    0.0000 N   0  0  0  0  0  0  0  0  0  0  0  0
    6.4952    2.2500    0.0000 C   0  0  0  0  0  0  0  0  0  0  0  0
    7.7942    3.0000    0.0000 C   0  0  0  0  0  0  0  0  0  0  0  0
    7.7942    4.5000    0.0000 C   0  0  0  0  0  0  0  0  0  0  0  0
    7.7942    6.0000    0.0000 C   0  0  0  0  0  0  0  0  0  0  0  0
    5.1962    3.0000    0.0000 C   0  0  0  0  0  0  0  0  0  0  0  0
    3.8971    2.2500    0.0000 O   0  0  0  0  0  0  0  0  0  0  0  0
    5.1962    4.5000    0.0000 O   0  0  0  0  0  0  0  0  0  0  0  0
  1  2  1  0
  1  3  1  0
  3  4  1  1
  4  5  1  0
  5  6  1  0
  5  7  1  0
  3  8  1  0
  8  9  2  0
  8 10  1  0
 10 11  1  0
 12 10  1  1
 12 13  1  0
 13 14  1  0
 13 15  1  1
 12 16  1  0
 16 17  2  0
 16 18  1  0
 18 19  1  0
 19 20  1  6
 20 21  1  0
 21 22  3  0
 19 23  1  0
 23 24  2  0
 23 25  1  0
M  END
$$$$

     RDKit          2D

 25 24  0  0  0  0  0  0  0  0999 V2000
    1.2990   -3.7500    0.0000 N   0  0  0  0  0  0  0  0  0  0  0  0
    2.5981   -4.5000    0.0000 C   0  0  0  0  0  0  0  0  0  0  0  0
    1.2990   -2.2500    0.0000 C   0  0  0  0  0  0  0  0  0  0  0  0
   -0.0000   -1.5000    0.0000 C   0  0  0  0  0  0  0  0  0  0  0  0
   -0.0000   -0.0000    0.0000 C   0  0  0  0  0  0  0  0  0  0  0  0
   -1.2990    0.7500    0.0000 C   0  0  0  0  0  0  0  0  0  0  0  0
    1.2990    0.7500    0.0000 C   0  0  0  0  0  0  0  0  0  0  0  0
    2.5981   -1.5000    0.0000 C   0  0  0  0  0  0  0  0  0  0  0  0
    2.5981   -0.0000    0.0000 O   0  0  0  0  0  0  0  0  0  0  0  0
    3.8971   -2.2500    0.0000 N   0  0  0  0  0  0  0  0  0  0  0  0
    3.8971   -3.7500    0.0000 C   0  0  0  0  0  0  0  0  0  0  0  0
    5.1962   -1.5000    0.0000 C   0  0  0  0  0  0  0  0  0  0  0  0
    6.4952   -2.2500    0.0000 C   0  0  0  0  0  0  0  0  0  0  0  0
    6.4952   -3.7500    0.0000 O   0  0  0  0  0  0  0  0  0  0  0  0
    7.7942   -1.5000    0.0000 C   0  0  0  0  0  0  0  0  0  0  0  0
    5.1962    0.0000    0.0000 C   0  0  0  0  0  0  0  0  0  0  0  0
    3.8971    0.7500    0.0000 O   0  0  0  0  0  0  0  0  0  0  0  0
    6.4952    0.7500    0.0000 N   0  0  0  0  0  0  0  0  0  0  0  0
    6.4952    2.2500    0.0000 C   0  0  0  0  0  0  0  0  0  0  0  0
    7.7942    3.0000    0.0000 C   0  0  0  0  0  0  0  0  0  0  0  0
    7.7942    4.5000    0.0000 C   0  0  0  0  0  0  0  0  0  0  0  0
    7.7942    6.0000    0.0000 C   0  0  0  0  0  0  0  0  0  0  0  0
    5.1962    3.0000    0.0000 C   0  0  0  0  0  0  0  0  0  0  0  0
    3.8971    2.2500    0.0000 O   0  0  0  0  0  0  0  0  0  0  0  0
    5.1962    4.5000    0.0000 O   0  0  0  0  0  0  0  0  0  0  0  0
  1  2  1  0
  1  3  1  0
  3  4  1  6
  4  5  1  0
  5  6  1  0
  5  7  1  0
  3  8  1  0
  8  9  2  0
  8 10  1  0
 10 11  1  0
 12 10  1  1
 12 13  1  0
 13 14  1  0
 13 15  1  1
 12 16  1  0
 16 17  2  0
 16 18  1  0
 18 19  1  0
 19 20  1  6
 20 21  1  0
 21 22  3  0
 19 23  1  0
 23 24  2  0
 23 25  1  0
M  END
$$$$

     RDKit          2D

 27 27  0  0  0  0  0  0  0  0999 V2000
    7.5000    0.0000    0.0000 N   0  0  0  0  0  0  0  0  0  0  0  0
    8.2500   -1.2990    0.0000 C   0  0  0  0  0  0  0  0  0  0  0  0
    9.7500   -1.2990    0.0000 C   0  0  0  0  0  0  0  0  0  0  0  0
   10.5000    0.0000    0.0000 C   0  0  0  0  0  0  0  0  0  0  0  0
    9.7500    1.2990    0.0000 C   0  0  0  0  0  0  0  0  0  0  0  0
   10.5000    2.5981    0.0000 C   0  0  0  0  0  0  0  0  0  0  0  0
   12.0000    2.5981    0.0000 C   0  0  0  0  0  0  0  0  0  0  0  0
   12.7500    1.2990    0.0000 C   0  0  0  0  0  0  0  0  0  0  0  0
   12.0000    0.0000    0.0000 C   0  0  0  0  0  0  0  0  0  0  0  0
    7.5000   -2.5981    0.0000 C   0  0  0  0  0  0  0  0  0  0  0  0
    8.2500   -3.8971    0.0000 O   0  0  0  0  0  0  0  0  0  0  0  0
    6.0000   -2.5981    0.0000 N   0  0  0  0  0  0  0  0  0  0  0  0
    5.2500   -1.2990    0.0000 C   0  0  0  0  0  0  0  0  0  0  0  0
    5.2500   -3.8971    0.0000 C   0  0  0  0  0  0  0  0  0  0  0  0
    6.0000   -5.1962    0.0000 C   0  0  0  0  0  0  0  0  0  0  0  0
    7.5000   -5.1962    0.0000 O   0  0  0  0  0  0  0  0  0  0  0  0
    5.2500   -6.4952    0.0000 C   0  0  0  0  0  0  0  0  0  0  0  0
    3.7500   -3.8971    0.0000 C   0  0  0  0  0  0  0  0  0  0  0  0
    3.0000   -2.5981    0.0000 O   0  0  0  0  0  0  0  0  0  0  0  0
    3.0000   -5.1962    0.0000 N   0  0  0  0  0  0  0  0  0  0  0  0
    1.5000   -5.1962    0.0000 C   0  0  0  0  0  0  0  0  0  0  0  0
    0.7500   -6.4952    0.0000 C   0  0  0  0  0  0  0  0  0  0  0  0
   -0.7500   -6.4952    0.0000 C   0  0  0  0  0  0  0  0  0  0  0  0
   -2.2500   -6.4952    0.0000 C   0  0  0  0  0  0  0  0  0  0  0  0
    0.7500   -3.8971    0.0000 C   0  0  0  0  0  0  0  0  0  0  0  0
    1.5000   -2.5981    0.0000 O   0  0  0  0  0  0  0  0  0  0  0  0
   -0.7500   -3.8971    0.0000 O   0  0  0  0  0  0  0  0  0  0  0  0
  2  1  1  1
  2  3  1  0
  3  4  1  0
  4  5  2  0
  5  6  1  0
  6  7  2  0
  7  8  1  0
  8  9  2  0
  2 10  1  0
 10 11  2  0
 10 12  1  0
 12 13  1  0
 14 12  1  6
 14 15  1  0
 15 16  1  0
 15 17  1  6
 14 18  1  0
 18 19  2  0
 18 20  1  0
 20 21  1  0
 21 22  1  1
 22 23  1  0
 23 24  3  0
 21 25  1  0
 25 26  2  0
 25 27  1  0
  9  4  1  0
M  END
$$$$

     RDKit          2D

 27 27  0  0  0  0  0  0  0  0999 V2000
    7.5000    0.0000    0.0000 N   0  0  0  0  0  0  0  0  0  0  0  0
    8.2500   -1.2990    0.0000 C   0  0  0  0  0  0  0  0  0  0  0  0
    9.7500   -1.2990    0.0000 C   0  0  0  0  0  0  0  0  0  0  0  0
   10.5000    0.0000    0.0000 C   0  0  0  0  0  0  0  0  0  0  0  0
    9.7500    1.2990    0.0000 C   0  0  0  0  0  0  0  0  0  0  0  0
   10.5000    2.5981    0.0000 C   0  0  0  0  0  0  0  0  0  0  0  0
   12.0000    2.5981    0.0000 C   0  0  0  0  0  0  0  0  0  0  0  0
   12.7500    1.2990    0.0000 C   0  0  0  0  0  0  0  0  0  0  0  0
   12.0000    0.0000    0.0000 C   0  0  0  0  0  0  0  0  0  0  0  0
    7.5000   -2.5981    0.0000 C   0  0  0  0  0  0  0  0  0  0  0  0
    8.2500   -3.8971    0.0000 O   0  0  0  0  0  0  0  0  0  0  0  0
    6.0000   -2.5981    0.0000 N   0  0  0  0  0  0  0  0  0  0  0  0
    5.2500   -1.2990    0.0000 C   0  0  0  0  0  0  0  0  0  0  0  0
    5.2500   -3.8971    0.0000 C   0  0  0  0  0  0  0  0  0  0  0  0
    6.0000   -5.1962    0.0000 C   0  0  0  0  0  0  0  0  0  0  0  0
    7.5000   -5.1962    0.0000 O   0  0  0  0  0  0  0  0  0  0  0  0
    5.2500   -6.4952    0.0000 C   0  0  0  0  0  0  0  0  0  0  0  0
    3.7500   -3.8971    0.0000 C   0  0  0  0  0  0  0  0  0  0  0  0
    3.0000   -2.5981    0.0000 O   0  0  0  0  0  0  0  0  0  0  0  0
    3.0000   -5.1962    0.0000 N   0  0  0  0  0  0  0  0  0  0  0  0
    1.5000   -5.1962    0.0000 C   0  0  0  0  0  0  0  0  0  0  0  0
    0.7500   -6.4952    0.0000 C   0  0  0  0  0  0  0  0  0  0  0  0
   -0.7500   -6.4952    0.0000 C   0  0  0  0  0  0  0  0  0  0  0  0
   -2.2500   -6.4952    0.0000 C   0  0  0  0  0  0  0  0  0  0  0  0
    0.7500   -3.8971    0.0000 C   0  0  0  0  0  0  0  0  0  0  0  0
    1.5000   -2.5981    0.0000 O   0  0  0  0  0  0  0  0  0  0  0  0
   -0.7500   -3.8971    0.0000 O   0  0  0  0  0  0  0  0  0  0  0  0
  2  1  1  6
  2  3  1  0
  3  4  1  0
  4  5  2  0
  5  6  1  0
  6  7  2  0
  7  8  1  0
  8  9  2  0
  2 10  1  0
 10 11  2  0
 10 12  1  0
 12 13  1  0
 14 12  1  6
 14 15  1  0
 15 16  1  0
 15 17  1  6
 14 18  1  0
 18 19  2  0
 18 20  1  0
 20 21  1  0
 21 22  1  1
 22 23  1  0
 23 24  3  0
 21 25  1  0
 25 26  2  0
 25 27  1  0
  9  4  1  0
M  END
$$$$

     RDKit          2D

 28 28  0  0  0  0  0  0  0  0999 V2000
    7.5000    0.0000    0.0000 N   0  0  0  0  0  0  0  0  0  0  0  0
    8.2500   -1.2990    0.0000 C   0  0  0  0  0  0  0  0  0  0  0  0
    6.0000    0.0000    0.0000 C   0  0  0  0  0  0  0  0  0  0  0  0
    5.2500    1.2990    0.0000 C   0  0  0  0  0  0  0  0  0  0  0  0
    6.0000    2.5981    0.0000 C   0  0  0  0  0  0  0  0  0  0  0  0
    7.5000    2.5981    0.0000 C   0  0  0  0  0  0  0  0  0  0  0  0
    8.2500    3.8971    0.0000 C   0  0  0  0  0  0  0  0  0  0  0  0
    7.5000    5.1962    0.0000 C   0  0  0  0  0  0  0  0  0  0  0  0
    6.0000    5.1962    0.0000 C   0  0  0  0  0  0  0  0  0  0  0  0
    5.2500    3.8971    0.0000 C   0  0  0  0  0  0  0  0  0  0  0  0
    5.2500   -1.2990    0.0000 C   0  0  0  0  0  0  0  0  0  0  0  0
    3.7500   -1.2990    0.0000 O   0  0  0  0  0  0  0  0  0  0  0  0
    6.0000   -2.5981    0.0000 N   0  0  0  0  0  0  0  0  0  0  0  0
    7.5000   -2.5981    0.0000 C   0  0  0  0  0  0  0  0  0  0  0  0
    5.2500   -3.8971    0.0000 C   0  0  0  0  0  0  0  0  0  0  0  0
    3.7500   -3.8971    0.0000 C   0  0  0  0  0  0  0  0  0  0  0  0
    3.0000   -2.5981    0.0000 O   0  0  0  0  0  0  0  0  0  0  0  0
    3.0000   -5.1962    0.0000 C   0  0  0  0  0  0  0  0  0  0  0  0
    6.0000   -5.1962    0.0000 C   0  0  0  0  0  0  0  0  0  0  0  0
    7.5000   -5.1962    0.0000 O   0  0  0  0  0  0  0  0  0  0  0  0
    5.2500   -6.4952    0.0000 N   0  0  0  0  0  0  0  0  0  0  0  0
    6.0000   -7.7942    0.0000 C   0  0  0  0  0  0  0  0  0  0  0  0
    5.2500   -9.0933    0.0000 C   0  0  0  0  0  0  0  0  0  0  0  0
    6.0000  -10.3923    0.0000 C   0  0  0  0  0  0  0  0  0  0  0  0
    6.7500  -11.6913    0.0000 C   0  0  0  0  0  0  0  0  0  0  0  0
    7.5000   -7.7942    0.0000 C   0  0  0  0  0  0  0  0  0  0  0  0
    8.2500   -6.4952    0.0000 O   0  0  0  0  0  0  0  0  0  0  0  0
    8.2500   -9.0933    0.0000 O   0  0  0  0  0  0  0  0  0  0  0  0
  1  2  1  0
  1  3  1  0
  3  4  1  6
  4  5  1  0
  5  6  2  0
  6  7  1  0
  7  8  2  0
  8  9  1  0
  9 10  2  0
  3 11  1  0
 11 12  2  0
 11 13  1  0
 13 14  1  0
 15 13  1  1
 15 16  1  0
 16 17  1  0
 16 18  1  1
 15 19  1  0
 19 20  2  0
 19 21  1  0
 21 22  1  0
 22 23  1  6
 23 24  1  0
 24 25  3  0
 22 26  1  0
 26 27  2  0
 26 28  1  0
 10  5  1  0
M  END
$$$$

     RDKit          2D

 28 28  0  0  0  0  0  0  0  0999 V2000
    7.5000    0.0000    0.0000 N   0  0  0  0  0  0  0  0  0  0  0  0
    8.2500   -1.2990    0.0000 C   0  0  0  0  0  0  0  0  0  0  0  0
    6.0000    0.0000    0.0000 C   0  0  0  0  0  0  0  0  0  0  0  0
    5.2500    1.2990    0.0000 C   0  0  0  0  0  0  0  0  0  0  0  0
    6.0000    2.5981    0.0000 C   0  0  0  0  0  0  0  0  0  0  0  0
    7.5000    2.5981    0.0000 C   0  0  0  0  0  0  0  0  0  0  0  0
    8.2500    3.8971    0.0000 C   0  0  0  0  0  0  0  0  0  0  0  0
    7.5000    5.1962    0.0000 C   0  0  0  0  0  0  0  0  0  0  0  0
    6.0000    5.1962    0.0000 C   0  0  0  0  0  0  0  0  0  0  0  0
    5.2500    3.8971    0.0000 C   0  0  0  0  0  0  0  0  0  0  0  0
    5.2500   -1.2990    0.0000 C   0  0  0  0  0  0  0  0  0  0  0  0
    3.7500   -1.2990    0.0000 O   0  0  0  0  0  0  0  0  0  0  0  0
    6.0000   -2.5981    0.0000 N   0  0  0  0  0  0  0  0  0  0  0  0
    7.5000   -2.5981    0.0000 C   0  0  0  0  0  0  0  0  0  0  0  0
    5.2500   -3.8971    0.0000 C   0  0  0  0  0  0  0  0  0  0  0  0
    3.7500   -3.8971    0.0000 C   0  0  0  0  0  0  0  0  0  0  0  0
    3.0000   -2.5981    0.0000 O   0  0  0  0  0  0  0  0  0  0  0  0
    3.0000   -5.1962    0.0000 C   0  0  0  0  0  0  0  0  0  0  0  0
    6.0000   -5.1962    0.0000 C   0  0  0  0  0  0  0  0  0  0  0  0
    7.5000   -5.1962    0.0000 O   0  0  0  0  0  0  0  0  0  0  0  0
    5.2500   -6.4952    0.0000 N   0  0  0  0  0  0  0  0  0  0  0  0
    6.0000   -7.7942    0.0000 C   0  0  0  0  0  0  0  0  0  0  0  0
    5.2500   -9.0933    0.0000 C   0  0  0  0  0  0  0  0  0  0  0  0
    6.0000  -10.3923    0.0000 C   0  0  0  0  0  0  0  0  0  0  0  0
    6.7500  -11.6913    0.0000 C   0  0  0  0  0  0  0  0  0  0  0  0
    7.5000   -7.7942    0.0000 C   0  0  0  0  0  0  0  0  0  0  0  0
    8.2500   -6.4952    0.0000 O   0  0  0  0  0  0  0  0  0  0  0  0
    8.2500   -9.0933    0.0000 O   0  0  0  0  0  0  0  0  0  0  0  0
  1  2  1  0
  1  3  1  0
  3  4  1  1
  4  5  1  0
  5  6  2  0
  6  7  1  0
  7  8  2  0
  8  9  1  0
  9 10  2  0
  3 11  1  0
 11 12  2  0
 11 13  1  0
 13 14  1  0
 15 13  1  1
 15 16  1  0
 16 17  1  0
 16 18  1  1
 15 19  1  0
 19 20  2  0
 19 21  1  0
 21 22  1  0
 22 23  1  6
 23 24  1  0
 24 25  3  0
 22 26  1  0
 26 27  2  0
 26 28  1  0
 10  5  1  0
M  END
$$$$

     RDKit          2D

 23 22  0  0  0  0  0  0  0  0999 V2000
    5.1962    3.0000    0.0000 N   0  0  0  0  0  0  0  0  0  0  0  0
    6.4952    2.2500    0.0000 C   0  0  0  0  0  0  0  0  0  0  0  0
    7.7942    3.0000    0.0000 C   0  0  0  0  0  0  0  0  0  0  0  0
    9.0933    2.2500    0.0000 O   0  0  0  0  0  0  0  0  0  0  0  0
    7.7942    4.5000    0.0000 C   0  0  0  0  0  0  0  0  0  0  0  0
    6.4952    0.7500    0.0000 C   0  0  0  0  0  0  0  0  0  0  0  0
    7.7942   -0.0000    0.0000 O   0  0  0  0  0  0  0  0  0  0  0  0
    5.1962   -0.0000    0.0000 N   0  0  0  0  0  0  0  0  0  0  0  0
    3.8971    0.7500    0.0000 C   0  0  0  0  0  0  0  0  0  0  0  0
    5.1962   -1.5000    0.0000 C   0  0  0  0  0  0  0  0  0  0  0  0
    6.4952   -2.2500    0.0000 C   0  0  0  0  0  0  0  0  0  0  0  0
    7.7942   -1.5000    0.0000 O   0  0  0  0  0  0  0  0  0  0  0  0
    6.4952   -3.7500    0.0000 C   0  0  0  0  0  0  0  0  0  0  0  0
    3.8971   -2.2500    0.0000 C   0  0  0  0  0  0  0  0  0  0  0  0
    2.5981   -1.5000    0.0000 O   0  0  0  0  0  0  0  0  0  0  0  0
    3.8971   -3.7500    0.0000 N   0  0  0  0  0  0  0  0  0  0  0  0
    2.5981   -4.5000    0.0000 C   0  0  0  0  0  0  0  0  0  0  0  0
    2.5981   -6.0000    0.0000 C   0  0  0  0  0  0  0  0  0  0  0  0
    1.2990   -6.7500    0.0000 C   0  0  0  0  0  0  0  0  0  0  0  0
   -0.0000   -7.5000    0.0000 C   0  0  0  0  0  0  0  0  0  0  0  0
    1.2990   -3.7500    0.0000 C   0  0  0  0  0  0  0  0  0  0  0  0
    1.2990   -2.2500    0.0000 O   0  0  0  0  0  0  0  0  0  0  0  0
   -0.0000   -4.5000    0.0000 O   0  0  0  0  0  0  0  0  0  0  0  0
  2  1  1  1
  2  3  1  0
  3  4  1  0
  3  5  1  1
  2  6  1  0
  6  7  2  0
  6  8  1  0
  8  9  1  0
 10  8  1  6
 10 11  1  0
 11 12  1  0
 11 13  1  6
 10 14  1  0
 14 15  2  0
 14 16  1  0
 16 17  1  0
 17 18  1  1
 18 19  1  0
 19 20  3  0
 17 21  1  0
 21 22  2  0
 21 23  1  0
M  END
$$$$

     RDKit          2D

 23 22  0  0  0  0  0  0  0  0999 V2000
    5.1962    3.0000    0.0000 N   0  0  0  0  0  0  0  0  0  0  0  0
    6.4952    2.2500    0.0000 C   0  0  0  0  0  0  0  0  0  0  0  0
    7.7942    3.0000    0.0000 C   0  0  0  0  0  0  0  0  0  0  0  0
    9.0933    2.2500    0.0000 O   0  0  0  0  0  0  0  0  0  0  0  0
    7.7942    4.5000    0.0000 C   0  0  0  0  0  0  0  0  0  0  0  0
    6.4952    0.7500    0.0000 C   0  0  0  0  0  0  0  0  0  0  0  0
    7.7942   -0.0000    0.0000 O   0  0  0  0  0  0  0  0  0  0  0  0
    5.1962   -0.0000    0.0000 N   0  0  0  0  0  0  0  0  0  0  0  0
    3.8971    0.7500    0.0000 C   0  0  0  0  0  0  0  0  0  0  0  0
    5.1962   -1.5000    0.0000 C   0  0  0  0  0  0  0  0  0  0  0  0
    6.4952   -2.2500    0.0000 C   0  0  0  0  0  0  0  0  0  0  0  0
    7.7942   -1.5000    0.0000 O   0  0  0  0  0  0  0  0  0  0  0  0
    6.4952   -3.7500    0.0000 C   0  0  0  0  0  0  0  0  0  0  0  0
    3.8971   -2.2500    0.0000 C   0  0  0  0  0  0  0  0  0  0  0  0
    2.5981   -1.5000    0.0000 O   0  0  0  0  0  0  0  0  0  0  0  0
    3.8971   -3.7500    0.0000 N   0  0  0  0  0  0  0  0  0  0  0  0
    2.5981   -4.5000    0.0000 C   0  0  0  0  0  0  0  0  0  0  0  0
    2.5981   -6.0000    0.0000 C   0  0  0  0  0  0  0  0  0  0  0  0
    1.2990   -6.7500    0.0000 C   0  0  0  0  0  0  0  0  0  0  0  0
   -0.0000   -7.5000    0.0000 C   0  0  0  0  0  0  0  0  0  0  0  0
    1.2990   -3.7500    0.0000 C   0  0  0  0  0  0  0  0  0  0  0  0
    1.2990   -2.2500    0.0000 O   0  0  0  0  0  0  0  0  0  0  0  0
   -0.0000   -4.5000    0.0000 O   0  0  0  0  0  0  0  0  0  0  0  0
  2  1  1  6
  2  3  1  0
  3  4  1  0
  3  5  1  1
  2  6  1  0
  6  7  2  0
  6  8  1  0
  8  9  1  0
 10  8  1  6
 10 11  1  0
 11 12  1  0
 11 13  1  6
 10 14  1  0
 14 15  2  0
 14 16  1  0
 16 17  1  0
 17 18  1  1
 18 19  1  0
 19 20  3  0
 17 21  1  0
 21 22  2  0
 21 23  1  0
M  END
$$$$

     RDKit          2D

 24 23  0  0  0  0  0  0  0  0999 V2000
    2.5981   -6.0000    0.0000 N   0  0  0  0  0  0  0  0  0  0  0  0
    3.8971   -6.7500    0.0000 C   0  0  0  0  0  0  0  0  0  0  0  0
    2.5981   -4.5000    0.0000 C   0  0  0  0  0  0  0  0  0  0  0  0
    1.2990   -3.7500    0.0000 C   0  0  0  0  0  0  0  0  0  0  0  0
   -0.0000   -4.5000    0.0000 O   0  0  0  0  0  0  0  0  0  0  0  0
    1.2990   -2.2500    0.0000 C   0  0  0  0  0  0  0  0  0  0  0  0
    3.8971   -3.7500    0.0000 C   0  0  0  0  0  0  0  0  0  0  0  0
    5.1962   -4.5000    0.0000 O   0  0  0  0  0  0  0  0  0  0  0  0
    3.8971   -2.2500    0.0000 N   0  0  0  0  0  0  0  0  0  0  0  0
    2.5981   -1.5000    0.0000 C   0  0  0  0  0  0  0  0  0  0  0  0
    5.1962   -1.5000    0.0000 C   0  0  0  0  0  0  0  0  0  0  0  0
    6.4952   -2.2500    0.0000 C   0  0  0  0  0  0  0  0  0  0  0  0
    6.4952   -3.7500    0.0000 O   0  0  0  0  0  0  0  0  0  0  0  0
    7.7942   -1.5000    0.0000 C   0  0  0  0  0  0  0  0  0  0  0  0
    5.1962    0.0000    0.0000 C   0  0  0  0  0  0  0  0  0  0  0  0
    3.8971    0.7500    0.0000 O   0  0  0  0  0  0  0  0  0  0  0  0
    6.4952    0.7500    0.0000 N   0  0  0  0  0  0  0  0  0  0  0  0
    6.4952    2.2500    0.0000 C   0  0  0  0  0  0  0  0  0  0  0  0
    7.7942    3.0000    0.0000 C   0  0  0  0  0  0  0  0  0  0  0  0
    7.7942    4.5000    0.0000 C   0  0  0  0  0  0  0  0  0  0  0  0
    7.7942    6.0000    0.0000 C   0  0  0  0  0  0  0  0  0  0  0  0
    5.1962    3.0000    0.0000 C   0  0  0  0  0  0  0  0  0  0  0  0
    3.8971    2.2500    0.0000 O   0  0  0  0  0  0  0  0  0  0  0  0
    5.1962    4.5000    0.0000 O   0  0  0  0  0  0  0  0  0  0  0  0
  1  2  1  0
  3  1  1  1
  3  4  1  0
  4  5  1  0
  4  6  1  6
  3  7  1  0
  7  8  2  0
  7  9  1  0
  9 10  1  0
 11  9  1  1
 11 12  1  0
 12 13  1  0
 12 14  1  1
 11 15  1  0
 15 16  2  0
 15 17  1  0
 17 18  1  0
 18 19  1  6
 19 20  1  0
 20 21  3  0
 18 22  1  0
 22 23  2  0
 22 24  1  0
M  END
$$$$

     RDKit          2D

 24 23  0  0  0  0  0  0  0  0999 V2000
    2.5981   -6.0000    0.0000 N   0  0  0  0  0  0  0  0  0  0  0  0
    3.8971   -6.7500    0.0000 C   0  0  0  0  0  0  0  0  0  0  0  0
    2.5981   -4.5000    0.0000 C   0  0  0  0  0  0  0  0  0  0  0  0
    1.2990   -3.7500    0.0000 C   0  0  0  0  0  0  0  0  0  0  0  0
   -0.0000   -4.5000    0.0000 O   0  0  0  0  0  0  0  0  0  0  0  0
    1.2990   -2.2500    0.0000 C   0  0  0  0  0  0  0  0  0  0  0  0
    3.8971   -3.7500    0.0000 C   0  0  0  0  0  0  0  0  0  0  0  0
    5.1962   -4.5000    0.0000 O   0  0  0  0  0  0  0  0  0  0  0  0
    3.8971   -2.2500    0.0000 N   0  0  0  0  0  0  0  0  0  0  0  0
    2.5981   -1.5000    0.0000 C   0  0  0  0  0  0  0  0  0  0  0  0
    5.1962   -1.5000    0.0000 C   0  0  0  0  0  0  0  0  0  0  0  0
    6.4952   -2.2500    0.0000 C   0  0  0  0  0  0  0  0  0  0  0  0
    6.4952   -3.7500    0.0000 O   0  0  0  0  0  0  0  0  0  0  0  0
    7.7942   -1.5000    0.0000 C   0  0  0  0  0  0  0  0  0  0  0  0
    5.1962    0.0000    0.0000 C   0  0  0  0  0  0  0  0  0  0  0  0
    3.8971    0.7500    0.0000 O   0  0  0  0  0  0  0  0  0  0  0  0
    6.4952    0.7500    0.0000 N   0  0  0  0  0  0  0  0  0  0  0  0
    6.4952    2.2500    0.0000 C   0  0  0  0  0  0  0  0  0  0  0  0
    7.7942    3.0000    0.0000 C   0  0  0  0  0  0  0  0  0  0  0  0
    7.7942    4.5000    0.0000 C   0  0  0  0  0  0  0  0  0  0  0  0
    7.7942    6.0000    0.0000 C   0  0  0  0  0  0  0  0  0  0  0  0
    5.1962    3.0000    0.0000 C   0  0  0  0  0  0  0  0  0  0  0  0
    3.8971    2.2500    0.0000 O   0  0  0  0  0  0  0  0  0  0  0  0
    5.1962    4.5000    0.0000 O   0  0  0  0  0  0  0  0  0  0  0  0
  1  2  1  0
  3  1  1  6
  3  4  1  0
  4  5  1  0
  4  6  1  6
  3  7  1  0
  7  8  2  0
  7  9  1  0
  9 10  1  0
 11  9  1  1
 11 12  1  0
 12 13  1  0
 12 14  1  1
 11 15  1  0
 15 16  2  0
 15 17  1  0
 17 18  1  0
 18 19  1  6
 19 20  1  0
 20 21  3  0
 18 22  1  0
 22 23  2  0
 22 24  1  0
M  END
$$$$

     RDKit          2D

 24 23  0  0  0  0  0  0  0  0999 V2000
    2.5981    3.0000    0.0000 N   0  0  0  0  0  0  0  0  0  0  0  0
    1.2990    2.2500    0.0000 C   0  0  0  0  0  0  0  0  0  0  0  0
    1.2990    0.7500    0.0000 C   0  0  0  0  0  0  0  0  0  0  0  0
    0.0000    0.0000    0.0000 C   0  0  0  0  0  0  0  0  0  0  0  0
    2.5981   -0.0000    0.0000 C   0  0  0  0  0  0  0  0  0  0  0  0
    2.5981    4.5000    0.0000 C   0  0  0  0  0  0  0  0  0  0  0  0
    3.8971    5.2500    0.0000 C   0  0  0  0  0  0  0  0  0  0  0  0
    5.1962    4.5000    0.0000 O   0  0  0  0  0  0  0  0  0  0  0  0
    3.8971    6.7500    0.0000 N   0  0  0  0  0  0  0  0  0  0  0  0
    5.1962    7.5000    0.0000 C   0  0  0  0  0  0  0  0  0  0  0  0
    2.5981    7.5000    0.0000 C   0  0  0  0  0  0  0  0  0  0  0  0
    2.5981    9.0000    0.0000 C   0  0  0  0  0  0  0  0  0  0  0  0
    3.8971    9.7500    0.0000 O   0  0  0  0  0  0  0  0  0  0  0  0
    1.2990    9.7500    0.0000 C   0  0  0  0  0  0  0  0  0  0  0  0
    1.2990    6.7500    0.0000 C   0  0  0  0  0  0  0  0  0  0  0  0
    1.2990    5.2500    0.0000 O   0  0  0  0  0  0  0  0  0  0  0  0
    0.0000    7.5000    0.0000 N   0  0  0  0  0  0  0  0  0  0  0  0
   -1.2990    6.7500    0.0000 C   0  0  0  0  0  0  0  0  0  0  0  0
   -2.5981    7.5000    0.0000 C   0  0  0  0  0  0  0  0  0  0  0  0
   -3.8971    6.7500    0.0000 C   0  0  0  0  0  0  0  0  0  0  0  0
   -5.1962    6.0000    0.0000 C   0  0  0  0  0  0  0  0  0  0  0  0
   -1.2990    5.2500    0.0000 C   0  0  0  0  0  0  0  0  0  0  0  0
    0.0000    4.5000    0.0000 O   0  0  0  0  0  0  0  0  0  0  0  0
   -2.5981    4.5000    0.0000 O   0  0  0  0  0  0  0  0  0  0  0  0
  1  2  1  0
  2  3  1  0
  3  4  1  0
  3  5  1  0
  1  6  1  0
  6  7  1  0
  7  8  2  0
  7  9  1  0
  9 10  1  0
 11  9  1  1
 11 12  1  0
 12 13  1  0
 12 14  1  1
 11 15  1  0
 15 16  2  0
 15 17  1  0
 17 18  1  0
 18 19  1  6
 19 20  1  0
 20 21  3  0
 18 22  1  0
 22 23  2  0
 22 24  1  0
M  END
$$$$

     RDKit          2D

 27 26  0  0  0  0  0  0  0  0999 V2000
    3.8971    6.7500    0.0000 N   0  0  0  0  0  0  0  0  0  0  0  0
    3.8971    5.2500    0.0000 C   0  0  0  0  0  0  0  0  0  0  0  0
    2.5981    4.5000    0.0000 C   0  0  0  0  0  0  0  0  0  0  0  0
    2.5981    3.0000    0.0000 C   0  0  0  0  0  0  0  0  0  0  0  0
    1.2990    2.2500    0.0000 O   0  0  0  0  0  0  0  0  0  0  0  0
    1.2990    0.7500    0.0000 C   0  0  0  0  0  0  0  0  0  0  0  0
    0.0000    0.0000    0.0000 C   0  0  0  0  0  0  0  0  0  0  0  0
    2.5981   -0.0000    0.0000 C   0  0  0  0  0  0  0  0  0  0  0  0
    5.1962    7.5000    0.0000 C   0  0  0  0  0  0  0  0  0  0  0  0
    5.1962    9.0000    0.0000 C   0  0  0  0  0  0  0  0  0  0  0  0
    3.8971    9.7500    0.0000 O   0  0  0  0  0  0  0  0  0  0  0  0
    6.4952    9.7500    0.0000 N   0  0  0  0  0  0  0  0  0  0  0  0
    6.4952   11.2500    0.0000 C   0  0  0  0  0  0  0  0  0  0  0  0
    7.7942    9.0000    0.0000 C   0  0  0  0  0  0  0  0  0  0  0  0
    9.0933    9.7500    0.0000 C   0  0  0  0  0  0  0  0  0  0  0  0
    9.0933   11.2500    0.0000 O   0  0  0  0  0  0  0  0  0  0  0  0
   10.3923    9.0000    0.0000 C   0  0  0  0  0  0  0  0  0  0  0  0
    7.7942    7.5000    0.0000 C   0  0  0  0  0  0  0  0  0  0  0  0
    6.4952    6.7500    0.0000 O   0  0  0  0  0  0  0  0  0  0  0  0
    9.0933    6.7500    0.0000 N   0  0  0  0  0  0  0  0  0  0  0  0
    9.0933    5.2500    0.0000 C   0  0  0  0  0  0  0  0  0  0  0  0
   10.3923    4.5000    0.0000 C   0  0  0  0  0  0  0  0  0  0  0  0
   10.3923    3.0000    0.0000 C   0  0  0  0  0  0  0  0  0  0  0  0
   10.3923    1.5000    0.0000 C   0  0  0  0  0  0  0  0  0  0  0  0
    7.7942    4.5000    0.0000 C   0  0  0  0  0  0  0  0  0  0  0  0
    6.4952    5.2500    0.0000 O   0  0  0  0  0  0  0  0  0  0  0  0
    7.7942    3.0000    0.0000 O   0  0  0  0  0  0  0  0  0  0  0  0
  1  2  1  0
  2  3  1  0
  3  4  1  0
  4  5  1  0
  5  6  1  0
  6  7  1  0
  6  8  1  0
  1  9  1  0
  9 10  1  0
 10 11  2  0
 10 12  1  0
 12 13  1  0
 14 12  1  6
 14 15  1  0
 15 16  1  0
 15 17  1  6
 14 18  1  0
 18 19  2  0
 18 20  1  0
 20 21  1  0
 21 22  1  1
 22 23  1  0
 23 24  3  0
 21 25  1  0
 25 26  2  0
 25 27  1  0
M  END
$$$$

     RDKit          2D

 29 29  0  0  0  0  0  0  0  0999 V2000
    6.0000   -2.5981    0.0000 N   0  0  0  0  0  0  0  0  0  0  0  0
    5.2500   -1.2990    0.0000 C   0  0  0  0  0  0  0  0  0  0  0  0
    3.7500   -1.2990    0.0000 C   0  0  0  0  0  0  0  0  0  0  0  0
    3.0000    0.0000    0.0000 O   0  0  0  0  0  0  0  0  0  0  0  0
    1.5000    0.0000    0.0000 C   0  0  0  0  0  0  0  0  0  0  0  0
    0.7500   -1.2990    0.0000 C   0  0  0  0  0  0  0  0  0  0  0  0
   -0.7500   -1.2990    0.0000 C   0  0  0  0  0  0  0  0  0  0  0  0
   -1.5000    0.0000    0.0000 C   0  0  0  0  0  0  0  0  0  0  0  0
   -0.7500    1.2990    0.0000 C   0  0  0  0  0  0  0  0  0  0  0  0
    0.7500    1.2990    0.0000 C   0  0  0  0  0  0  0  0  0  0  0  0
    7.5000   -2.5981    0.0000 C   0  0  0  0  0  0  0  0  0  0  0  0
    8.2500   -3.8971    0.0000 C   0  0  0  0  0  0  0  0  0  0  0  0
    7.5000   -5.1962    0.0000 O   0  0  0  0  0  0  0  0  0  0  0  0
    9.7500   -3.8971    0.0000 N   0  0  0  0  0  0  0  0  0  0  0  0
   10.5000   -5.1962    0.0000 C   0  0  0  0  0  0  0  0  0  0  0  0
   10.5000   -2.5981    0.0000 C   0  0  0  0  0  0  0  0  0  0  0  0
   12.0000   -2.5981    0.0000 C   0  0  0  0  0  0  0  0  0  0  0  0
   12.7500   -3.8971    0.0000 O   0  0  0  0  0  0  0  0  0  0  0  0
   12.7500   -1.2990    0.0000 C   0  0  0  0  0  0  0  0  0  0  0  0
    9.7500   -1.2990    0.0000 C   0  0  0  0  0  0  0  0  0  0  0  0
    8.2500   -1.2990    0.0000 O   0  0  0  0  0  0  0  0  0  0  0  0
   10.5000    0.0000    0.0000 N   0  0  0  0  0  0  0  0  0  0  0  0
    9.7500    1.2990    0.0000 C   0  0  0  0  0  0  0  0  0  0  0  0
   10.5000    2.5981    0.0000 C   0  0  0  0  0  0  0  0  0  0  0  0
    9.7500    3.8971    0.0000 C   0  0  0  0  0  0  0  0  0  0  0  0
    9.0000    5.1962    0.0000 C   0  0  0  0  0  0  0  0  0  0  0  0
    8.2500    1.2990    0.0000 C   0  0  0  0  0  0  0  0  0  0  0  0
    7.5000    0.0000    0.0000 O   0  0  0  0  0  0  0  0  0  0  0  0
    7.5000    2.5981    0.0000 O   0  0  0  0  0  0  0  0  0  0  0  0
  1  2  1  0
  2  3  1  0
  3  4  1  0
  4  5  1  0
  5  6  2  0
  6  7  1  0
  7  8  2  0
  8  9  1  0
  9 10  2  0
  1 11  1  0
 11 12  1  0
 12 13  2  0
 12 14  1  0
 14 15  1  0
 16 14  1  1
 16 17  1  0
 17 18  1  0
 17 19  1  1
 16 20  1  0
 20 21  2  0
 20 22  1  0
 22 23  1  0
 23 24  1  6
 24 25  1  0
 25 26  3  0
 23 27  1  0
 27 28  2  0
 27 29  1  0
 10  5  1  0
M  END
$$$$

     RDKit          2D

 32 32  0  0  0  0  0  0  0  0999 V2000
    5.2500   -1.2990    0.0000 N   0  0  0  0  0  0  0  0  0  0  0  0
    3.7500   -1.2990    0.0000 C   0  0  0  0  0  0  0  0  0  0  0  0
    3.0000    0.0000    0.0000 C   0  0  0  0  0  0  0  0  0  0  0  0
    1.5000    0.0000    0.0000 C   0  0  0  0  0  0  0  0  0  0  0  0
    0.7500   -1.2990    0.0000 C   0  0  0  0  0  0  0  0  0  0  0  0
   -0.7500   -1.2990    0.0000 C   0  0  0  0  0  0  0  0  0  0  0  0
   -1.5000    0.0000    0.0000 C   0  0  0  0  0  0  0  0  0  0  0  0
   -0.7500    1.2990    0.0000 C   0  0  0  0  0  0  0  0  0  0  0  0
   -1.5000    2.5981    0.0000 O   0  0  0  0  0  0  0  0  0  0  0  0
   -0.7500    3.8971    0.0000 C   0  0  0  0  0  0  0  0  0  0  0  0
    0.7500    1.2990    0.0000 C   0  0  0  0  0  0  0  0  0  0  0  0
   -3.0000    0.0000    0.0000 O   0  0  0  0  0  0  0  0  0  0  0  0
   -3.7500    1.2990    0.0000 C   0  0  0  0  0  0  0  0  0  0  0  0
    6.0000   -2.5981    0.0000 C   0  0  0  0  0  0  0  0  0  0  0  0
    7.5000   -2.5981    0.0000 C   0  0  0  0  0  0  0  0  0  0  0  0
    8.2500   -1.2990    0.0000 O   0  0  0  0  0  0  0  0  0  0  0  0
    8.2500   -3.8971    0.0000 N   0  0  0  0  0  0  0  0  0  0  0  0
    9.7500   -3.8971    0.0000 C   0  0  0  0  0  0  0  0  0  0  0  0
    7.5000   -5.1962    0.0000 C   0  0  0  0  0  0  0  0  0  0  0  0
    8.2500   -6.4952    0.0000 C   0  0  0  0  0  0  0  0  0  0  0  0
    9.7500   -6.4952    0.0000 O   0  0  0  0  0  0  0  0  0  0  0  0
    7.5000   -7.7942    0.0000 C   0  0  0  0  0  0  0  0  0  0  0  0
    6.0000   -5.1962    0.0000 C   0  0  0  0  0  0  0  0  0  0  0  0
    5.2500   -3.8971    0.0000 O   0  0  0  0  0  0  0  0  0  0  0  0
    5.2500   -6.4952    0.0000 N   0  0  0  0  0  0  0  0  0  0  0  0
    3.7500   -6.4952    0.0000 C   0  0  0  0  0  0  0  0  0  0  0  0
    3.0000   -7.7942    0.0000 C   0  0  0  0  0  0  0  0  0  0  0  0
    1.5000   -7.7942    0.0000 C   0  0  0  0  0  0  0  0  0  0  0  0
    0.0000   -7.7942    0.0000 C   0  0  0  0  0  0  0  0  0  0  0  0
    3.0000   -5.1962    0.0000 C   0  0  0  0  0  0  0  0  0  0  0  0
    3.7500   -3.8971    0.0000 O   0  0  0  0  0  0  0  0  0  0  0  0
    1.5000   -5.1962    0.0000 O   0  0  0  0  0  0  0  0  0  0  0  0
  1  2  1  0
  2  3  1  0
  3  4  1  0
  4  5  2  0
  5  6  1  0
  6  7  2  0
  7  8  1  0
  8  9  1  0
  9 10  1  0
  8 11  2  0
  7 12  1  0
 12 13  1  0
  1 14  1  0
 14 15  1  0
 15 16  2  0
 15 17  1  0
 17 18  1  0
 19 17  1  6
 19 20  1  0
 20 21  1  0
 20 22  1  6
 19 23  1  0
 23 24  2  0
 23 25  1  0
 25 26  1  0
 26 27  1  1
 27 28  1  0
 28 29  3  0
 26 30  1  0
 30 31  2  0
 30 32  1  0
 11  4  1  0
M  END
$$$$

     RDKit          2D

 39 39  0  0  0  0  0  0  0  0999 V2000
    1.2760    5.1962    0.0000 N   0  0  0  0  0  0  0  0  0  0  0  0
    2.7760    5.1962    0.0000 C   0  0  0  0  0  0  0  0  0  0  0  0
    3.5260    6.4952    0.0000 C   0  0  0  0  0  0  0  0  0  0  0  0
    2.7760    7.7942    0.0000 C   0  0  0  0  0  0  0  0  0  0  0  0
    3.5260    9.0933    0.0000 C   0  0  0  0  0  0  0  0  0  0  0  0
    1.2760    7.7942    0.0000 C   0  0  0  0  0  0  0  0  0  0  0  0
    3.5260    3.8971    0.0000 C   0  0  0  0  0  0  0  0  0  0  0  0
    5.0260    3.8971    0.0000 O   0  0  0  0  0  0  0  0  0  0  0  0
    2.7760    2.5981    0.0000 N   0  0  0  0  0  0  0  0  0  0  0  0
    3.5260    1.2990    0.0000 C   0  0  0  0  0  0  0  0  0  0  0  0
    5.0260    1.2990    0.0000 C   0  0  0  0  0  0  0  0  0  0  0  0
    5.7760    0.0000    0.0000 C   0  0  0  0  0  0  0  0  0  0  0  0
    7.2760    0.0000    0.0000 C   0  0  0  0  0  0  0  0  0  0  0  0
    5.0260   -1.2990    0.0000 C   0  0  0  0  0  0  0  0  0  0  0  0
    2.7760    0.0000    0.0000 C   0  0  0  0  0  0  0  0  0  0  0  0
    3.5260   -1.2990    0.0000 O   0  0  0  0  0  0  0  0  0  0  0  0
    1.2760    0.0000    0.0000 N   0  0  0  0  0  0  0  0  0  0  0  0
    0.3943    1.2135    0.0000 C   0  0  0  0  0  0  0  0  0  0  0  0
   -1.0323    0.7500    0.0000 C   0  0  0  0  0  0  0  0  0  0  0  0
   -1.0323   -0.7500    0.0000 C   0  0  0  0  0  0  0  0  0  0  0  0
    0.3943   -1.2135    0.0000 C   0  0  0  0  0  0  0  0  0  0  0  0
    0.8578   -2.6401    0.0000 C   0  0  0  0  0  0  0  0  0  0  0  0
    2.3250   -2.9520    0.0000 O   0  0  0  0  0  0  0  0  0  0  0  0
   -0.1459   -3.7548    0.0000 N   0  0  0  0  0  0  0  0  0  0  0  0
   -1.6131   -3.4430    0.0000 C   0  0  0  0  0  0  0  0  0  0  0  0
    0.3177   -5.1814    0.0000 C   0  0  0  0  0  0  0  0  0  0  0  0
    1.7849   -5.4933    0.0000 C   0  0  0  0  0  0  0  0  0  0  0  0
    2.2484   -6.9199    0.0000 O   0  0  0  0  0  0  0  0  0  0  0  0
    2.7886   -4.3786    0.0000 C   0  0  0  0  0  0  0  0  0  0  0  0
   -0.6860   -6.2961    0.0000 C   0  0  0  0  0  0  0  0  0  0  0  0
   -2.1533   -5.9843    0.0000 O   0  0  0  0  0  0  0  0  0  0  0  0
   -0.2225   -7.7227    0.0000 N   0  0  0  0  0  0  0  0  0  0  0  0
   -1.2262   -8.8374    0.0000 C   0  0  0  0  0  0  0  0  0  0  0  0
   -0.7627  -10.2640    0.0000 C   0  0  0  0  0  0  0  0  0  0  0  0
   -1.7664  -11.3787    0.0000 C   0  0  0  0  0  0  0  0  0  0  0  0
   -2.7701  -12.4935    0.0000 C   0  0  0  0  0  0  0  0  0  0  0  0
   -2.6934   -8.5256    0.0000 C   0  0  0  0  0  0  0  0  0  0  0  0
   -3.1570   -7.0990    0.0000 O   0  0  0  0  0  0  0  0  0  0  0  0
   -3.6971   -9.6403    0.0000 O   0  0  0  0  0  0  0  0  0  0  0  0
  2  1  1  1
  2  3  1  0
  3  4  1  0
  4  5  1  0
  4  6  1  0
  2  7  1  0
  7  8  2  0
  7  9  1  0
  9 10  1  0
 10 11  1  1
 11 12  1  0
 12 13  1  0
 12 14  1  0
 10 15  1  0
 15 16  2  0
 15 17  1  0
 17 18  1  0
 18 19  1  0
 19 20  1  0
 20 21  1  0
 21 22  1  6
 22 23  2  0
 22 24  1  0
 24 25  1  0
 26 24  1  6
 26 27  1  0
 27 28  1  0
 27 29  1  1
 26 30  1  0
 30 31  2  0
 30 32  1  0
 32 33  1  0
 33 34  1  1
 34 35  1  0
 35 36  3  0
 33 37  1  0
 37 38  2  0
 37 39  1  0
 21 17  1  0
M  END
$$$$

     RDKit          2D

 39 39  0  0  0  0  0  0  0  0999 V2000
    1.2760    5.1962    0.0000 N   0  0  0  0  0  0  0  0  0  0  0  0
    2.7760    5.1962    0.0000 C   0  0  0  0  0  0  0  0  0  0  0  0
    3.5260    6.4952    0.0000 C   0  0  0  0  0  0  0  0  0  0  0  0
    2.7760    7.7942    0.0000 C   0  0  0  0  0  0  0  0  0  0  0  0
    3.5260    9.0933    0.0000 C   0  0  0  0  0  0  0  0  0  0  0  0
    1.2760    7.7942    0.0000 C   0  0  0  0  0  0  0  0  0  0  0  0
    3.5260    3.8971    0.0000 C   0  0  0  0  0  0  0  0  0  0  0  0
    5.0260    3.8971    0.0000 O   0  0  0  0  0  0  0  0  0  0  0  0
    2.7760    2.5981    0.0000 N   0  0  0  0  0  0  0  0  0  0  0  0
    3.5260    1.2990    0.0000 C   0  0  0  0  0  0  0  0  0  0  0  0
    5.0260    1.2990    0.0000 C   0  0  0  0  0  0  0  0  0  0  0  0
    5.7760    0.0000    0.0000 C   0  0  0  0  0  0  0  0  0  0  0  0
    7.2760    0.0000    0.0000 C   0  0  0  0  0  0  0  0  0  0  0  0
    5.0260   -1.2990    0.0000 C   0  0  0  0  0  0  0  0  0  0  0  0
    2.7760    0.0000    0.0000 C   0  0  0  0  0  0  0  0  0  0  0  0
    3.5260   -1.2990    0.0000 O   0  0  0  0  0  0  0  0  0  0  0  0
    1.2760    0.0000    0.0000 N   0  0  0  0  0  0  0  0  0  0  0  0
    0.3943    1.2135    0.0000 C   0  0  0  0  0  0  0  0  0  0  0  0
   -1.0323    0.7500    0.0000 C   0  0  0  0  0  0  0  0  0  0  0  0
   -1.0323   -0.7500    0.0000 C   0  0  0  0  0  0  0  0  0  0  0  0
    0.3943   -1.2135    0.0000 C   0  0  0  0  0  0  0  0  0  0  0  0
    0.8578   -2.6401    0.0000 C   0  0  0  0  0  0  0  0  0  0  0  0
    2.3250   -2.9520    0.0000 O   0  0  0  0  0  0  0  0  0  0  0  0
   -0.1459   -3.7548    0.0000 N   0  0  0  0  0  0  0  0  0  0  0  0
   -1.6131   -3.4430    0.0000 C   0  0  0  0  0  0  0  0  0  0  0  0
    0.3177   -5.1814    0.0000 C   0  0  0  0  0  0  0  0  0  0  0  0
    1.7849   -5.4933    0.0000 C   0  0  0  0  0  0  0  0  0  0  0  0
    2.2484   -6.9199    0.0000 O   0  0  0  0  0  0  0  0  0  0  0  0
    2.7886   -4.3786    0.0000 C   0  0  0  0  0  0  0  0  0  0  0  0
   -0.6860   -6.2961    0.0000 C   0  0  0  0  0  0  0  0  0  0  0  0
   -2.1533   -5.9843    0.0000 O   0  0  0  0  0  0  0  0  0  0  0  0
   -0.2225   -7.7227    0.0000 N   0  0  0  0  0  0  0  0  0  0  0  0
   -1.2262   -8.8374    0.0000 C   0  0  0  0  0  0  0  0  0  0  0  0
   -0.7627  -10.2640    0.0000 C   0  0  0  0  0  0  0  0  0  0  0  0
   -1.7664  -11.3787    0.0000 C   0  0  0  0  0  0  0  0  0  0  0  0
   -2.7701  -12.4935    0.0000 C   0  0  0  0  0  0  0  0  0  0  0  0
   -2.6934   -8.5256    0.0000 C   0  0  0  0  0  0  0  0  0  0  0  0
   -3.1570   -7.0990    0.0000 O   0  0  0  0  0  0  0  0  0  0  0  0
   -3.6971   -9.6403    0.0000 O   0  0  0  0  0  0  0  0  0  0  0  0
  2  1  1  6
  2  3  1  0
  3  4  1  0
  4  5  1  0
  4  6  1  0
  2  7  1  0
  7  8  2  0
  7  9  1  0
  9 10  1  0
 10 11  1  1
 11 12  1  0
 12 13  1  0
 12 14  1  0
 10 15  1  0
 15 16  2  0
 15 17  1  0
 17 18  1  0
 18 19  1  0
 19 20  1  0
 20 21  1  0
 21 22  1  6
 22 23  2  0
 22 24  1  0
 24 25  1  0
 26 24  1  6
 26 27  1  0
 27 28  1  0
 27 29  1  1
 26 30  1  0
 30 31  2  0
 30 32  1  0
 32 33  1  0
 33 34  1  1
 34 35  1  0
 35 36  3  0
 33 37  1  0
 37 38  2  0
 37 39  1  0
 21 17  1  0
M  END
$$$$

     RDKit          2D

 40 40  0  0  0  0  0  0  0  0999 V2000
    1.2760    5.1962    0.0000 N   0  0  0  0  0  0  0  0  0  0  0  0
    0.5260    6.4952    0.0000 C   0  0  0  0  0  0  0  0  0  0  0  0
    2.7760    5.1962    0.0000 C   0  0  0  0  0  0  0  0  0  0  0  0
    3.5260    6.4952    0.0000 C   0  0  0  0  0  0  0  0  0  0  0  0
    2.7760    7.7942    0.0000 C   0  0  0  0  0  0  0  0  0  0  0  0
    3.5260    9.0933    0.0000 C   0  0  0  0  0  0  0  0  0  0  0  0
    1.2760    7.7942    0.0000 C   0  0  0  0  0  0  0  0  0  0  0  0
    3.5260    3.8971    0.0000 C   0  0  0  0  0  0  0  0  0  0  0  0
    5.0260    3.8971    0.0000 O   0  0  0  0  0  0  0  0  0  0  0  0
    2.7760    2.5981    0.0000 N   0  0  0  0  0  0  0  0  0  0  0  0
    3.5260    1.2990    0.0000 C   0  0  0  0  0  0  0  0  0  0  0  0
    5.0260    1.2990    0.0000 C   0  0  0  0  0  0  0  0  0  0  0  0
    5.7760    0.0000    0.0000 C   0  0  0  0  0  0  0  0  0  0  0  0
    7.2760    0.0000    0.0000 C   0  0  0  0  0  0  0  0  0  0  0  0
    5.0260   -1.2990    0.0000 C   0  0  0  0  0  0  0  0  0  0  0  0
    2.7760    0.0000    0.0000 C   0  0  0  0  0  0  0  0  0  0  0  0
    3.5260   -1.2990    0.0000 O   0  0  0  0  0  0  0  0  0  0  0  0
    1.2760    0.0000    0.0000 N   0  0  0  0  0  0  0  0  0  0  0  0
    0.3943    1.2135    0.0000 C   0  0  0  0  0  0  0  0  0  0  0  0
   -1.0323    0.7500    0.0000 C   0  0  0  0  0  0  0  0  0  0  0  0
   -1.0323   -0.7500    0.0000 C   0  0  0  0  0  0  0  0  0  0  0  0
    0.3943   -1.2135    0.0000 C   0  0  0  0  0  0  0  0  0  0  0  0
    0.8578   -2.6401    0.0000 C   0  0  0  0  0  0  0  0  0  0  0  0
    2.3250   -2.9520    0.0000 O   0  0  0  0  0  0  0  0  0  0  0  0
   -0.1459   -3.7548    0.0000 N   0  0  0  0  0  0  0  0  0  0  0  0
   -1.6131   -3.4430    0.0000 C   0  0  0  0  0  0  0  0  0  0  0  0
    0.3177   -5.1814    0.0000 C   0  0  0  0  0  0  0  0  0  0  0  0
    1.7849   -5.4933    0.0000 C   0  0  0  0  0  0  0  0  0  0  0  0
    2.2484   -6.9199    0.0000 O   0  0  0  0  0  0  0  0  0  0  0  0
    2.7886   -4.3786    0.0000 C   0  0  0  0  0  0  0  0  0  0  0  0
   -0.6860   -6.2961    0.0000 C   0  0  0  0  0  0  0  0  0  0  0  0
   -2.1533   -5.9843    0.0000 O   0  0  0  0  0  0  0  0  0  0  0  0
   -0.2225   -7.7227    0.0000 N   0  0  0  0  0  0  0  0  0  0  0  0
   -1.2262   -8.8374    0.0000 C   0  0  0  0  0  0  0  0  0  0  0  0
   -0.7627  -10.2640    0.0000 C   0  0  0  0  0  0  0  0  0  0  0  0
   -1.7664  -11.3787    0.0000 C   0  0  0  0  0  0  0  0  0  0  0  0
   -2.7701  -12.4935    0.0000 C   0  0  0  0  0  0  0  0  0  0  0  0
   -2.6934   -8.5256    0.0000 C   0  0  0  0  0  0  0  0  0  0  0  0
   -3.1570   -7.0990    0.0000 O   0  0  0  0  0  0  0  0  0  0  0  0
   -3.6971   -9.6403    0.0000 O   0  0  0  0  0  0  0  0  0  0  0  0
  1  2  1  0
  1  3  1  0
  3  4  1  1
  4  5  1  0
  5  6  1  0
  5  7  1  0
  3  8  1  0
  8  9  2  0
  8 10  1  0
 10 11  1  0
 11 12  1  1
 12 13  1  0
 13 14  1  0
 13 15  1  0
 11 16  1  0
 16 17  2  0
 16 18  1  0
 18 19  1  0
 19 20  1  0
 20 21  1  0
 21 22  1  0
 22 23  1  6
 23 24  2  0
 23 25  1  0
 25 26  1  0
 27 25  1  6
 27 28  1  0
 28 29  1  0
 28 30  1  1
 27 31  1  0
 31 32  2  0
 31 33  1  0
 33 34  1  0
 34 35  1  1
 35 36  1  0
 36 37  3  0
 34 38  1  0
 38 39  2  0
 38 40  1  0
 22 18  1  0
M  END
$$$$

     RDKit          2D

 40 40  0  0  0  0  0  0  0  0999 V2000
    1.2760    5.1962    0.0000 N   0  0  0  0  0  0  0  0  0  0  0  0
    0.5260    6.4952    0.0000 C   0  0  0  0  0  0  0  0  0  0  0  0
    2.7760    5.1962    0.0000 C   0  0  0  0  0  0  0  0  0  0  0  0
    3.5260    6.4952    0.0000 C   0  0  0  0  0  0  0  0  0  0  0  0
    2.7760    7.7942    0.0000 C   0  0  0  0  0  0  0  0  0  0  0  0
    3.5260    9.0933    0.0000 C   0  0  0  0  0  0  0  0  0  0  0  0
    1.2760    7.7942    0.0000 C   0  0  0  0  0  0  0  0  0  0  0  0
    3.5260    3.8971    0.0000 C   0  0  0  0  0  0  0  0  0  0  0  0
    5.0260    3.8971    0.0000 O   0  0  0  0  0  0  0  0  0  0  0  0
    2.7760    2.5981    0.0000 N   0  0  0  0  0  0  0  0  0  0  0  0
    3.5260    1.2990    0.0000 C   0  0  0  0  0  0  0  0  0  0  0  0
    5.0260    1.2990    0.0000 C   0  0  0  0  0  0  0  0  0  0  0  0
    5.7760    0.0000    0.0000 C   0  0  0  0  0  0  0  0  0  0  0  0
    7.2760    0.0000    0.0000 C   0  0  0  0  0  0  0  0  0  0  0  0
    5.0260   -1.2990    0.0000 C   0  0  0  0  0  0  0  0  0  0  0  0
    2.7760    0.0000    0.0000 C   0  0  0  0  0  0  0  0  0  0  0  0
    3.5260   -1.2990    0.0000 O   0  0  0  0  0  0  0  0  0  0  0  0
    1.2760    0.0000    0.0000 N   0  0  0  0  0  0  0  0  0  0  0  0
    0.3943    1.2135    0.0000 C   0  0  0  0  0  0  0  0  0  0  0  0
   -1.0323    0.7500    0.0000 C   0  0  0  0  0  0  0  0  0  0  0  0
   -1.0323   -0.7500    0.0000 C   0  0  0  0  0  0  0  0  0  0  0  0
    0.3943   -1.2135    0.0000 C   0  0  0  0  0  0  0  0  0  0  0  0
    0.8578   -2.6401    0.0000 C   0  0  0  0  0  0  0  0  0  0  0  0
    2.3250   -2.9520    0.0000 O   0  0  0  0  0  0  0  0  0  0  0  0
   -0.1459   -3.7548    0.0000 N   0  0  0  0  0  0  0  0  0  0  0  0
   -1.6131   -3.4430    0.0000 C   0  0  0  0  0  0  0  0  0  0  0  0
    0.3177   -5.1814    0.0000 C   0  0  0  0  0  0  0  0  0  0  0  0
    1.7849   -5.4933    0.0000 C   0  0  0  0  0  0  0  0  0  0  0  0
    2.2484   -6.9199    0.0000 O   0  0  0  0  0  0  0  0  0  0  0  0
    2.7886   -4.3786    0.0000 C   0  0  0  0  0  0  0  0  0  0  0  0
   -0.6860   -6.2961    0.0000 C   0  0  0  0  0  0  0  0  0  0  0  0
   -2.1533   -5.9843    0.0000 O   0  0  0  0  0  0  0  0  0  0  0  0
   -0.2225   -7.7227    0.0000 N   0  0  0  0  0  0  0  0  0  0  0  0
   -1.2262   -8.8374    0.0000 C   0  0  0  0  0  0  0  0  0  0  0  0
   -0.7627  -10.2640    0.0000 C   0  0  0  0  0  0  0  0  0  0  0  0
   -1.7664  -11.3787    0.0000 C   0  0  0  0  0  0  0  0  0  0  0  0
   -2.7701  -12.4935    0.0000 C   0  0  0  0  0  0  0  0  0  0  0  0
   -2.6934   -8.5256    0.0000 C   0  0  0  0  0  0  0  0  0  0  0  0
   -3.1570   -7.0990    0.0000 O   0  0  0  0  0  0  0  0  0  0  0  0
   -3.6971   -9.6403    0.0000 O   0  0  0  0  0  0  0  0  0  0  0  0
  1  2  1  0
  1  3  1  0
  3  4  1  6
  4  5  1  0
  5  6  1  0
  5  7  1  0
  3  8  1  0
  8  9  2  0
  8 10  1  0
 10 11  1  0
 11 12  1  1
 12 13  1  0
 13 14  1  0
 13 15  1  0
 11 16  1  0
 16 17  2  0
 16 18  1  0
 18 19  1  0
 19 20  1  0
 20 21  1  0
 21 22  1  0
 22 23  1  6
 23 24  2  0
 23 25  1  0
 25 26  1  0
 27 25  1  6
 27 28  1  0
 28 29  1  0
 28 30  1  1
 27 31  1  0
 31 32  2  0
 31 33  1  0
 33 34  1  0
 34 35  1  1
 35 36  1  0
 36 37  3  0
 34 38  1  0
 38 39  2  0
 38 40  1  0
 22 18  1  0
M  END
$$$$

     RDKit          2D

 39 39  0  0  0  0  0  0  0  0999 V2000
    1.2760    5.1962    0.0000 N   0  0  0  0  0  0  0  0  0  0  0  0
    2.7760    5.1962    0.0000 C   0  0  0  0  0  0  0  0  0  0  0  0
    3.5260    6.4952    0.0000 C   0  0  0  0  0  0  0  0  0  0  0  0
    2.7760    7.7942    0.0000 C   0  0  0  0  0  0  0  0  0  0  0  0
    3.5260    9.0933    0.0000 C   0  0  0  0  0  0  0  0  0  0  0  0
    1.2760    7.7942    0.0000 C   0  0  0  0  0  0  0  0  0  0  0  0
    3.5260    3.8971    0.0000 C   0  0  0  0  0  0  0  0  0  0  0  0
    5.0260    3.8971    0.0000 O   0  0  0  0  0  0  0  0  0  0  0  0
    2.7760    2.5981    0.0000 N   0  0  0  0  0  0  0  0  0  0  0  0
    3.5260    1.2990    0.0000 C   0  0  0  0  0  0  0  0  0  0  0  0
    5.0260    1.2990    0.0000 C   0  0  0  0  0  0  0  0  0  0  0  0
    5.7760    0.0000    0.0000 C   0  0  0  0  0  0  0  0  0  0  0  0
    7.2760    0.0000    0.0000 C   0  0  0  0  0  0  0  0  0  0  0  0
    5.0260   -1.2990    0.0000 C   0  0  0  0  0  0  0  0  0  0  0  0
    2.7760    0.0000    0.0000 C   0  0  0  0  0  0  0  0  0  0  0  0
    3.5260   -1.2990    0.0000 O   0  0  0  0  0  0  0  0  0  0  0  0
    1.2760    0.0000    0.0000 N   0  0  0  0  0  0  0  0  0  0  0  0
    0.3943    1.2135    0.0000 C   0  0  0  0  0  0  0  0  0  0  0  0
   -1.0323    0.7500    0.0000 C   0  0  0  0  0  0  0  0  0  0  0  0
   -1.0323   -0.7500    0.0000 C   0  0  0  0  0  0  0  0  0  0  0  0
    0.3943   -1.2135    0.0000 C   0  0  0  0  0  0  0  0  0  0  0  0
    0.8578   -2.6401    0.0000 C   0  0  0  0  0  0  0  0  0  0  0  0
    2.3250   -2.9520    0.0000 O   0  0  0  0  0  0  0  0  0  0  0  0
   -0.1459   -3.7548    0.0000 N   0  0  0  0  0  0  0  0  0  0  0  0
   -1.6131   -3.4430    0.0000 C   0  0  0  0  0  0  0  0  0  0  0  0
    0.3177   -5.1814    0.0000 C   0  0  0  0  0  0  0  0  0  0  0  0
    1.7849   -5.4933    0.0000 C   0  0  0  0  0  0  0  0  0  0  0  0
    2.2484   -6.9199    0.0000 O   0  0  0  0  0  0  0  0  0  0  0  0
    2.7886   -4.3786    0.0000 C   0  0  0  0  0  0  0  0  0  0  0  0
   -0.6860   -6.2961    0.0000 C   0  0  0  0  0  0  0  0  0  0  0  0
   -2.1533   -5.9843    0.0000 O   0  0  0  0  0  0  0  0  0  0  0  0
   -0.2225   -7.7227    0.0000 N   0  0  0  0  0  0  0  0  0  0  0  0
   -1.2262   -8.8374    0.0000 C   0  0  0  0  0  0  0  0  0  0  0  0
   -0.7627  -10.2640    0.0000 C   0  0  0  0  0  0  0  0  0  0  0  0
   -1.7664  -11.3787    0.0000 C   0  0  0  0  0  0  0  0  0  0  0  0
   -2.7701  -12.4935    0.0000 C   0  0  0  0  0  0  0  0  0  0  0  0
   -2.6934   -8.5256    0.0000 C   0  0  0  0  0  0  0  0  0  0  0  0
   -3.1570   -7.0990    0.0000 O   0  0  0  0  0  0  0  0  0  0  0  0
   -3.6971   -9.6403    0.0000 O   0  0  0  0  0  0  0  0  0  0  0  0
  2  1  1  1
  2  3  1  0
  3  4  1  0
  4  5  1  0
  4  6  1  0
  2  7  1  0
  7  8  2  0
  7  9  1  0
  9 10  1  0
 10 11  1  6
 11 12  1  0
 12 13  1  0
 12 14  1  0
 10 15  1  0
 15 16  2  0
 15 17  1  0
 17 18  1  0
 18 19  1  0
 19 20  1  0
 20 21  1  0
 21 22  1  6
 22 23  2  0
 22 24  1  0
 24 25  1  0
 26 24  1  6
 26 27  1  0
 27 28  1  0
 27 29  1  1
 26 30  1  0
 30 31  2  0
 30 32  1  0
 32 33  1  0
 33 34  1  1
 34 35  1  0
 35 36  3  0
 33 37  1  0
 37 38  2  0
 37 39  1  0
 21 17  1  0
M  END
$$$$

     RDKit          2D

 39 39  0  0  0  0  0  0  0  0999 V2000
    1.2760    5.1962    0.0000 N   0  0  0  0  0  0  0  0  0  0  0  0
    2.7760    5.1962    0.0000 C   0  0  0  0  0  0  0  0  0  0  0  0
    3.5260    6.4952    0.0000 C   0  0  0  0  0  0  0  0  0  0  0  0
    2.7760    7.7942    0.0000 C   0  0  0  0  0  0  0  0  0  0  0  0
    3.5260    9.0933    0.0000 C   0  0  0  0  0  0  0  0  0  0  0  0
    1.2760    7.7942    0.0000 C   0  0  0  0  0  0  0  0  0  0  0  0
    3.5260    3.8971    0.0000 C   0  0  0  0  0  0  0  0  0  0  0  0
    5.0260    3.8971    0.0000 O   0  0  0  0  0  0  0  0  0  0  0  0
    2.7760    2.5981    0.0000 N   0  0  0  0  0  0  0  0  0  0  0  0
    3.5260    1.2990    0.0000 C   0  0  0  0  0  0  0  0  0  0  0  0
    5.0260    1.2990    0.0000 C   0  0  0  0  0  0  0  0  0  0  0  0
    5.7760    0.0000    0.0000 C   0  0  0  0  0  0  0  0  0  0  0  0
    7.2760    0.0000    0.0000 C   0  0  0  0  0  0  0  0  0  0  0  0
    5.0260   -1.2990    0.0000 C   0  0  0  0  0  0  0  0  0  0  0  0
    2.7760    0.0000    0.0000 C   0  0  0  0  0  0  0  0  0  0  0  0
    3.5260   -1.2990    0.0000 O   0  0  0  0  0  0  0  0  0  0  0  0
    1.2760    0.0000    0.0000 N   0  0  0  0  0  0  0  0  0  0  0  0
    0.3943    1.2135    0.0000 C   0  0  0  0  0  0  0  0  0  0  0  0
   -1.0323    0.7500    0.0000 C   0  0  0  0  0  0  0  0  0  0  0  0
   -1.0323   -0.7500    0.0000 C   0  0  0  0  0  0  0  0  0  0  0  0
    0.3943   -1.2135    0.0000 C   0  0  0  0  0  0  0  0  0  0  0  0
    0.8578   -2.6401    0.0000 C   0  0  0  0  0  0  0  0  0  0  0  0
    2.3250   -2.9520    0.0000 O   0  0  0  0  0  0  0  0  0  0  0  0
   -0.1459   -3.7548    0.0000 N   0  0  0  0  0  0  0  0  0  0  0  0
   -1.6131   -3.4430    0.0000 C   0  0  0  0  0  0  0  0  0  0  0  0
    0.3177   -5.1814    0.0000 C   0  0  0  0  0  0  0  0  0  0  0  0
    1.7849   -5.4933    0.0000 C   0  0  0  0  0  0  0  0  0  0  0  0
    2.2484   -6.9199    0.0000 O   0  0  0  0  0  0  0  0  0  0  0  0
    2.7886   -4.3786    0.0000 C   0  0  0  0  0  0  0  0  0  0  0  0
   -0.6860   -6.2961    0.0000 C   0  0  0  0  0  0  0  0  0  0  0  0
   -2.1533   -5.9843    0.0000 O   0  0  0  0  0  0  0  0  0  0  0  0
   -0.2225   -7.7227    0.0000 N   0  0  0  0  0  0  0  0  0  0  0  0
   -1.2262   -8.8374    0.0000 C   0  0  0  0  0  0  0  0  0  0  0  0
   -0.7627  -10.2640    0.0000 C   0  0  0  0  0  0  0  0  0  0  0  0
   -1.7664  -11.3787    0.0000 C   0  0  0  0  0  0  0  0  0  0  0  0
   -2.7701  -12.4935    0.0000 C   0  0  0  0  0  0  0  0  0  0  0  0
   -2.6934   -8.5256    0.0000 C   0  0  0  0  0  0  0  0  0  0  0  0
   -3.1570   -7.0990    0.0000 O   0  0  0  0  0  0  0  0  0  0  0  0
   -3.6971   -9.6403    0.0000 O   0  0  0  0  0  0  0  0  0  0  0  0
  2  1  1  6
  2  3  1  0
  3  4  1  0
  4  5  1  0
  4  6  1  0
  2  7  1  0
  7  8  2  0
  7  9  1  0
  9 10  1  0
 10 11  1  6
 11 12  1  0
 12 13  1  0
 12 14  1  0
 10 15  1  0
 15 16  2  0
 15 17  1  0
 17 18  1  0
 18 19  1  0
 19 20  1  0
 20 21  1  0
 21 22  1  6
 22 23  2  0
 22 24  1  0
 24 25  1  0
 26 24  1  6
 26 27  1  0
 27 28  1  0
 27 29  1  1
 26 30  1  0
 30 31  2  0
 30 32  1  0
 32 33  1  0
 33 34  1  1
 34 35  1  0
 35 36  3  0
 33 37  1  0
 37 38  2  0
 37 39  1  0
 21 17  1  0
M  END
$$$$

     RDKit          2D

 40 40  0  0  0  0  0  0  0  0999 V2000
    1.2760    5.1962    0.0000 N   0  0  0  0  0  0  0  0  0  0  0  0
    0.5260    6.4952    0.0000 C   0  0  0  0  0  0  0  0  0  0  0  0
    2.7760    5.1962    0.0000 C   0  0  0  0  0  0  0  0  0  0  0  0
    3.5260    6.4952    0.0000 C   0  0  0  0  0  0  0  0  0  0  0  0
    2.7760    7.7942    0.0000 C   0  0  0  0  0  0  0  0  0  0  0  0
    3.5260    9.0933    0.0000 C   0  0  0  0  0  0  0  0  0  0  0  0
    1.2760    7.7942    0.0000 C   0  0  0  0  0  0  0  0  0  0  0  0
    3.5260    3.8971    0.0000 C   0  0  0  0  0  0  0  0  0  0  0  0
    5.0260    3.8971    0.0000 O   0  0  0  0  0  0  0  0  0  0  0  0
    2.7760    2.5981    0.0000 N   0  0  0  0  0  0  0  0  0  0  0  0
    3.5260    1.2990    0.0000 C   0  0  0  0  0  0  0  0  0  0  0  0
    5.0260    1.2990    0.0000 C   0  0  0  0  0  0  0  0  0  0  0  0
    5.7760    0.0000    0.0000 C   0  0  0  0  0  0  0  0  0  0  0  0
    7.2760    0.0000    0.0000 C   0  0  0  0  0  0  0  0  0  0  0  0
    5.0260   -1.2990    0.0000 C   0  0  0  0  0  0  0  0  0  0  0  0
    2.7760    0.0000    0.0000 C   0  0  0  0  0  0  0  0  0  0  0  0
    3.5260   -1.2990    0.0000 O   0  0  0  0  0  0  0  0  0  0  0  0
    1.2760    0.0000    0.0000 N   0  0  0  0  0  0  0  0  0  0  0  0
    0.3943    1.2135    0.0000 C   0  0  0  0  0  0  0  0  0  0  0  0
   -1.0323    0.7500    0.0000 C   0  0  0  0  0  0  0  0  0  0  0  0
   -1.0323   -0.7500    0.0000 C   0  0  0  0  0  0  0  0  0  0  0  0
    0.3943   -1.2135    0.0000 C   0  0  0  0  0  0  0  0  0  0  0  0
    0.8578   -2.6401    0.0000 C   0  0  0  0  0  0  0  0  0  0  0  0
    2.3250   -2.9520    0.0000 O   0  0  0  0  0  0  0  0  0  0  0  0
   -0.1459   -3.7548    0.0000 N   0  0  0  0  0  0  0  0  0  0  0  0
   -1.6131   -3.4430    0.0000 C   0  0  0  0  0  0  0  0  0  0  0  0
    0.3177   -5.1814    0.0000 C   0  0  0  0  0  0  0  0  0  0  0  0
    1.7849   -5.4933    0.0000 C   0  0  0  0  0  0  0  0  0  0  0  0
    2.2484   -6.9199    0.0000 O   0  0  0  0  0  0  0  0  0  0  0  0
    2.7886   -4.3786    0.0000 C   0  0  0  0  0  0  0  0  0  0  0  0
   -0.6860   -6.2961    0.0000 C   0  0  0  0  0  0  0  0  0  0  0  0
   -2.1533   -5.9843    0.0000 O   0  0  0  0  0  0  0  0  0  0  0  0
   -0.2225   -7.7227    0.0000 N   0  0  0  0  0  0  0  0  0  0  0  0
   -1.2262   -8.8374    0.0000 C   0  0  0  0  0  0  0  0  0  0  0  0
   -0.7627  -10.2640    0.0000 C   0  0  0  0  0  0  0  0  0  0  0  0
   -1.7664  -11.3787    0.0000 C   0  0  0  0  0  0  0  0  0  0  0  0
   -2.7701  -12.4935    0.0000 C   0  0  0  0  0  0  0  0  0  0  0  0
   -2.6934   -8.5256    0.0000 C   0  0  0  0  0  0  0  0  0  0  0  0
   -3.1570   -7.0990    0.0000 O   0  0  0  0  0  0  0  0  0  0  0  0
   -3.6971   -9.6403    0.0000 O   0  0  0  0  0  0  0  0  0  0  0  0
  1  2  1  0
  1  3  1  0
  3  4  1  1
  4  5  1  0
  5  6  1  0
  5  7  1  0
  3  8  1  0
  8  9  2  0
  8 10  1  0
 10 11  1  0
 11 12  1  6
 12 13  1  0
 13 14  1  0
 13 15  1  0
 11 16  1  0
 16 17  2  0
 16 18  1  0
 18 19  1  0
 19 20  1  0
 20 21  1  0
 21 22  1  0
 22 23  1  6
 23 24  2  0
 23 25  1  0
 25 26  1  0
 27 25  1  6
 27 28  1  0
 28 29  1  0
 28 30  1  1
 27 31  1  0
 31 32  2  0
 31 33  1  0
 33 34  1  0
 34 35  1  1
 35 36  1  0
 36 37  3  0
 34 38  1  0
 38 39  2  0
 38 40  1  0
 22 18  1  0
M  END
$$$$

     RDKit          2D

 40 40  0  0  0  0  0  0  0  0999 V2000
    1.2760    5.1962    0.0000 N   0  0  0  0  0  0  0  0  0  0  0  0
    0.5260    6.4952    0.0000 C   0  0  0  0  0  0  0  0  0  0  0  0
    2.7760    5.1962    0.0000 C   0  0  0  0  0  0  0  0  0  0  0  0
    3.5260    6.4952    0.0000 C   0  0  0  0  0  0  0  0  0  0  0  0
    2.7760    7.7942    0.0000 C   0  0  0  0  0  0  0  0  0  0  0  0
    3.5260    9.0933    0.0000 C   0  0  0  0  0  0  0  0  0  0  0  0
    1.2760    7.7942    0.0000 C   0  0  0  0  0  0  0  0  0  0  0  0
    3.5260    3.8971    0.0000 C   0  0  0  0  0  0  0  0  0  0  0  0
    5.0260    3.8971    0.0000 O   0  0  0  0  0  0  0  0  0  0  0  0
    2.7760    2.5981    0.0000 N   0  0  0  0  0  0  0  0  0  0  0  0
    3.5260    1.2990    0.0000 C   0  0  0  0  0  0  0  0  0  0  0  0
    5.0260    1.2990    0.0000 C   0  0  0  0  0  0  0  0  0  0  0  0
    5.7760    0.0000    0.0000 C   0  0  0  0  0  0  0  0  0  0  0  0
    7.2760    0.0000    0.0000 C   0  0  0  0  0  0  0  0  0  0  0  0
    5.0260   -1.2990    0.0000 C   0  0  0  0  0  0  0  0  0  0  0  0
    2.7760    0.0000    0.0000 C   0  0  0  0  0  0  0  0  0  0  0  0
    3.5260   -1.2990    0.0000 O   0  0  0  0  0  0  0  0  0  0  0  0
    1.2760    0.0000    0.0000 N   0  0  0  0  0  0  0  0  0  0  0  0
    0.3943    1.2135    0.0000 C   0  0  0  0  0  0  0  0  0  0  0  0
   -1.0323    0.7500    0.0000 C   0  0  0  0  0  0  0  0  0  0  0  0
   -1.0323   -0.7500    0.0000 C   0  0  0  0  0  0  0  0  0  0  0  0
    0.3943   -1.2135    0.0000 C   0  0  0  0  0  0  0  0  0  0  0  0
    0.8578   -2.6401    0.0000 C   0  0  0  0  0  0  0  0  0  0  0  0
    2.3250   -2.9520    0.0000 O   0  0  0  0  0  0  0  0  0  0  0  0
   -0.1459   -3.7548    0.0000 N   0  0  0  0  0  0  0  0  0  0  0  0
   -1.6131   -3.4430    0.0000 C   0  0  0  0  0  0  0  0  0  0  0  0
    0.3177   -5.1814    0.0000 C   0  0  0  0  0  0  0  0  0  0  0  0
    1.7849   -5.4933    0.0000 C   0  0  0  0  0  0  0  0  0  0  0  0
    2.2484   -6.9199    0.0000 O   0  0  0  0  0  0  0  0  0  0  0  0
    2.7886   -4.3786    0.0000 C   0  0  0  0  0  0  0  0  0  0  0  0
   -0.6860   -6.2961    0.0000 C   0  0  0  0  0  0  0  0  0  0  0  0
   -2.1533   -5.9843    0.0000 O   0  0  0  0  0  0  0  0  0  0  0  0
   -0.2225   -7.7227    0.0000 N   0  0  0  0  0  0  0  0  0  0  0  0
   -1.2262   -8.8374    0.0000 C   0  0  0  0  0  0  0  0  0  0  0  0
   -0.7627  -10.2640    0.0000 C   0  0  0  0  0  0  0  0  0  0  0  0
   -1.7664  -11.3787    0.0000 C   0  0  0  0  0  0  0  0  0  0  0  0
   -2.7701  -12.4935    0.0000 C   0  0  0  0  0  0  0  0  0  0  0  0
   -2.6934   -8.5256    0.0000 C   0  0  0  0  0  0  0  0  0  0  0  0
   -3.1570   -7.0990    0.0000 O   0  0  0  0  0  0  0  0  0  0  0  0
   -3.6971   -9.6403    0.0000 O   0  0  0  0  0  0  0  0  0  0  0  0
  1  2  1  0
  1  3  1  0
  3  4  1  6
  4  5  1  0
  5  6  1  0
  5  7  1  0
  3  8  1  0
  8  9  2  0
  8 10  1  0
 10 11  1  0
 11 12  1  6
 12 13  1  0
 13 14  1  0
 13 15  1  0
 11 16  1  0
 16 17  2  0
 16 18  1  0
 18 19  1  0
 19 20  1  0
 20 21  1  0
 21 22  1  0
 22 23  1  6
 23 24  2  0
 23 25  1  0
 25 26  1  0
 27 25  1  6
 27 28  1  0
 28 29  1  0
 28 30  1  1
 27 31  1  0
 31 32  2  0
 31 33  1  0
 33 34  1  0
 34 35  1  1
 35 36  1  0
 36 37  3  0
 34 38  1  0
 38 39  2  0
 38 40  1  0
 22 18  1  0
M  END
$$$$

     RDKit          2D

 40 40  0  0  0  0  0  0  0  0999 V2000
    8.0260    1.2990    0.0000 N   0  0  0  0  0  0  0  0  0  0  0  0
    7.2760    0.0000    0.0000 C   0  0  0  0  0  0  0  0  0  0  0  0
    8.0260   -1.2990    0.0000 C   0  0  0  0  0  0  0  0  0  0  0  0
    9.5260   -1.2990    0.0000 C   0  0  0  0  0  0  0  0  0  0  0  0
   10.2760   -2.5981    0.0000 C   0  0  0  0  0  0  0  0  0  0  0  0
   10.2760    0.0000    0.0000 C   0  0  0  0  0  0  0  0  0  0  0  0
    5.7760    0.0000    0.0000 C   0  0  0  0  0  0  0  0  0  0  0  0
    5.0260   -1.2990    0.0000 O   0  0  0  0  0  0  0  0  0  0  0  0
    5.0260    1.2990    0.0000 N   0  0  0  0  0  0  0  0  0  0  0  0
    5.7760    2.5981    0.0000 C   0  0  0  0  0  0  0  0  0  0  0  0
    3.5260    1.2990    0.0000 C   0  0  0  0  0  0  0  0  0  0  0  0
    2.7760    2.5981    0.0000 C   0  0  0  0  0  0  0  0  0  0  0  0
    3.5260    3.8971    0.0000 C   0  0  0  0  0  0  0  0  0  0  0  0
    2.7760    5.1962    0.0000 C   0  0  0  0  0  0  0  0  0  0  0  0
    5.0260    3.8971    0.0000 C   0  0  0  0  0  0  0  0  0  0  0  0
    2.7760    0.0000    0.0000 C   0  0  0  0  0  0  0  0  0  0  0  0
    3.5260   -1.2990    0.0000 O   0  0  0  0  0  0  0  0  0  0  0  0
    1.2760    0.0000    0.0000 N   0  0  0  0  0  0  0  0  0  0  0  0
    0.3943    1.2135    0.0000 C   0  0  0  0  0  0  0  0  0  0  0  0
   -1.0323    0.7500    0.0000 C   0  0  0  0  0  0  0  0  0  0  0  0
   -1.0323   -0.7500    0.0000 C   0  0  0  0  0  0  0  0  0  0  0  0
    0.3943   -1.2135    0.0000 C   0  0  0  0  0  0  0  0  0  0  0  0
    0.8578   -2.6401    0.0000 C   0  0  0  0  0  0  0  0  0  0  0  0
    2.3250   -2.9520    0.0000 O   0  0  0  0  0  0  0  0  0  0  0  0
   -0.1459   -3.7548    0.0000 N   0  0  0  0  0  0  0  0  0  0  0  0
   -1.6131   -3.4430    0.0000 C   0  0  0  0  0  0  0  0  0  0  0  0
    0.3177   -5.1814    0.0000 C   0  0  0  0  0  0  0  0  0  0  0  0
    1.7849   -5.4933    0.0000 C   0  0  0  0  0  0  0  0  0  0  0  0
    2.2484   -6.9199    0.0000 O   0  0  0  0  0  0  0  0  0  0  0  0
    2.7886   -4.3786    0.0000 C   0  0  0  0  0  0  0  0  0  0  0  0
   -0.6860   -6.2961    0.0000 C   0  0  0  0  0  0  0  0  0  0  0  0
   -2.1533   -5.9843    0.0000 O   0  0  0  0  0  0  0  0  0  0  0  0
   -0.2225   -7.7227    0.0000 N   0  0  0  0  0  0  0  0  0  0  0  0
   -1.2262   -8.8374    0.0000 C   0  0  0  0  0  0  0  0  0  0  0  0
   -0.7627  -10.2640    0.0000 C   0  0  0  0  0  0  0  0  0  0  0  0
   -1.7664  -11.3787    0.0000 C   0  0  0  0  0  0  0  0  0  0  0  0
   -2.7701  -12.4935    0.0000 C   0  0  0  0  0  0  0  0  0  0  0  0
   -2.6934   -8.5256    0.0000 C   0  0  0  0  0  0  0  0  0  0  0  0
   -3.1570   -7.0990    0.0000 O   0  0  0  0  0  0  0  0  0  0  0  0
   -3.6971   -9.6403    0.0000 O   0  0  0  0  0  0  0  0  0  0  0  0
  2  1  1  1
  2  3  1  0
  3  4  1  0
  4  5  1  0
  4  6  1  0
  2  7  1  0
  7  8  2  0
  7  9  1  0
  9 10  1  0
  9 11  1  0
 11 12  1  6
 12 13  1  0
 13 14  1  0
 13 15  1  0
 11 16  1  0
 16 17  2  0
 16 18  1  0
 18 19  1  0
 19 20  1  0
 20 21  1  0
 21 22  1  0
 22 23  1  6
 23 24  2  0
 23 25  1  0
 25 26  1  0
 27 25  1  6
 27 28  1  0
 28 29  1  0
 28 30  1  1
 27 31  1  0
 31 32  2  0
 31 33  1  0
 33 34  1  0
 34 35  1  1
 35 36  1  0
 36 37  3  0
 34 38  1  0
 38 39  2  0
 38 40  1  0
 22 18  1  0
M  END
$$$$

     RDKit          2D

 40 40  0  0  0  0  0  0  0  0999 V2000
    8.0260    1.2990    0.0000 N   0  0  0  0  0  0  0  0  0  0  0  0
    7.2760    0.0000    0.0000 C   0  0  0  0  0  0  0  0  0  0  0  0
    8.0260   -1.2990    0.0000 C   0  0  0  0  0  0  0  0  0  0  0  0
    9.5260   -1.2990    0.0000 C   0  0  0  0  0  0  0  0  0  0  0  0
   10.2760   -2.5981    0.0000 C   0  0  0  0  0  0  0  0  0  0  0  0
   10.2760    0.0000    0.0000 C   0  0  0  0  0  0  0  0  0  0  0  0
    5.7760    0.0000    0.0000 C   0  0  0  0  0  0  0  0  0  0  0  0
    5.0260   -1.2990    0.0000 O   0  0  0  0  0  0  0  0  0  0  0  0
    5.0260    1.2990    0.0000 N   0  0  0  0  0  0  0  0  0  0  0  0
    5.7760    2.5981    0.0000 C   0  0  0  0  0  0  0  0  0  0  0  0
    3.5260    1.2990    0.0000 C   0  0  0  0  0  0  0  0  0  0  0  0
    2.7760    2.5981    0.0000 C   0  0  0  0  0  0  0  0  0  0  0  0
    3.5260    3.8971    0.0000 C   0  0  0  0  0  0  0  0  0  0  0  0
    2.7760    5.1962    0.0000 C   0  0  0  0  0  0  0  0  0  0  0  0
    5.0260    3.8971    0.0000 C   0  0  0  0  0  0  0  0  0  0  0  0
    2.7760    0.0000    0.0000 C   0  0  0  0  0  0  0  0  0  0  0  0
    3.5260   -1.2990    0.0000 O   0  0  0  0  0  0  0  0  0  0  0  0
    1.2760    0.0000    0.0000 N   0  0  0  0  0  0  0  0  0  0  0  0
    0.3943    1.2135    0.0000 C   0  0  0  0  0  0  0  0  0  0  0  0
   -1.0323    0.7500    0.0000 C   0  0  0  0  0  0  0  0  0  0  0  0
   -1.0323   -0.7500    0.0000 C   0  0  0  0  0  0  0  0  0  0  0  0
    0.3943   -1.2135    0.0000 C   0  0  0  0  0  0  0  0  0  0  0  0
    0.8578   -2.6401    0.0000 C   0  0  0  0  0  0  0  0  0  0  0  0
    2.3250   -2.9520    0.0000 O   0  0  0  0  0  0  0  0  0  0  0  0
   -0.1459   -3.7548    0.0000 N   0  0  0  0  0  0  0  0  0  0  0  0
   -1.6131   -3.4430    0.0000 C   0  0  0  0  0  0  0  0  0  0  0  0
    0.3177   -5.1814    0.0000 C   0  0  0  0  0  0  0  0  0  0  0  0
    1.7849   -5.4933    0.0000 C   0  0  0  0  0  0  0  0  0  0  0  0
    2.2484   -6.9199    0.0000 O   0  0  0  0  0  0  0  0  0  0  0  0
    2.7886   -4.3786    0.0000 C   0  0  0  0  0  0  0  0  0  0  0  0
   -0.6860   -6.2961    0.0000 C   0  0  0  0  0  0  0  0  0  0  0  0
   -2.1533   -5.9843    0.0000 O   0  0  0  0  0  0  0  0  0  0  0  0
   -0.2225   -7.7227    0.0000 N   0  0  0  0  0  0  0  0  0  0  0  0
   -1.2262   -8.8374    0.0000 C   0  0  0  0  0  0  0  0  0  0  0  0
   -0.7627  -10.2640    0.0000 C   0  0  0  0  0  0  0  0  0  0  0  0
   -1.7664  -11.3787    0.0000 C   0  0  0  0  0  0  0  0  0  0  0  0
   -2.7701  -12.4935    0.0000 C   0  0  0  0  0  0  0  0  0  0  0  0
   -2.6934   -8.5256    0.0000 C   0  0  0  0  0  0  0  0  0  0  0  0
   -3.1570   -7.0990    0.0000 O   0  0  0  0  0  0  0  0  0  0  0  0
   -3.6971   -9.6403    0.0000 O   0  0  0  0  0  0  0  0  0  0  0  0
  2  1  1  6
  2  3  1  0
  3  4  1  0
  4  5  1  0
  4  6  1  0
  2  7  1  0
  7  8  2  0
  7  9  1  0
  9 10  1  0
  9 11  1  0
 11 12  1  6
 12 13  1  0
 13 14  1  0
 13 15  1  0
 11 16  1  0
 16 17  2  0
 16 18  1  0
 18 19  1  0
 19 20  1  0
 20 21  1  0
 21 22  1  0
 22 23  1  6
 23 24  2  0
 23 25  1  0
 25 26  1  0
 27 25  1  6
 27 28  1  0
 28 29  1  0
 28 30  1  1
 27 31  1  0
 31 32  2  0
 31 33  1  0
 33 34  1  0
 34 35  1  1
 35 36  1  0
 36 37  3  0
 34 38  1  0
 38 39  2  0
 38 40  1  0
 22 18  1  0
M  END
$$$$

     RDKit          2D

 24 23  0  0  0  0  0  0  0  0999 V2000
    3.8971    2.2500    0.0000 N   0  0  0  0  0  0  0  0  0  0  0  0
    2.5981    3.0000    0.0000 C   0  0  0  0  0  0  0  0  0  0  0  0
    1.2990    2.2500    0.0000 C   0  0  0  0  0  0  0  0  0  0  0  0
    1.2990    0.7500    0.0000 C   0  0  0  0  0  0  0  0  0  0  0  0
    0.0000    0.0000    0.0000 C   0  0  0  0  0  0  0  0  0  0  0  0
    2.5981   -0.0000    0.0000 C   0  0  0  0  0  0  0  0  0  0  0  0
    2.5981    4.5000    0.0000 C   0  0  0  0  0  0  0  0  0  0  0  0
    1.2990    5.2500    0.0000 O   0  0  0  0  0  0  0  0  0  0  0  0
    3.8971    5.2500    0.0000 N   0  0  0  0  0  0  0  0  0  0  0  0
    3.8971    6.7500    0.0000 C   0  0  0  0  0  0  0  0  0  0  0  0
    2.5981    7.5000    0.0000 C   0  0  0  0  0  0  0  0  0  0  0  0
    2.5981    9.0000    0.0000 C   0  0  0  0  0  0  0  0  0  0  0  0
    1.2990    6.7500    0.0000 C   0  0  0  0  0  0  0  0  0  0  0  0
    5.1962    4.5000    0.0000 C   0  0  0  0  0  0  0  0  0  0  0  0
    6.4952    5.2500    0.0000 C   0  0  0  0  0  0  0  0  0  0  0  0
    6.4952    6.7500    0.0000 O   0  0  0  0  0  0  0  0  0  0  0  0
    7.7942    4.5000    0.0000 N   0  0  0  0  0  0  0  0  0  0  0  0
    9.0933    5.2500    0.0000 C   0  0  0  0  0  0  0  0  0  0  0  0
   10.3923    4.5000    0.0000 C   0  0  0  0  0  0  0  0  0  0  0  0
   11.6913    5.2500    0.0000 C   0  0  0  0  0  0  0  0  0  0  0  0
   12.9904    6.0000    0.0000 C   0  0  0  0  0  0  0  0  0  0  0  0
    9.0933    6.7500    0.0000 C   0  0  0  0  0  0  0  0  0  0  0  0
    7.7942    7.5000    0.0000 O   0  0  0  0  0  0  0  0  0  0  0  0
   10.3923    7.5000    0.0000 O   0  0  0  0  0  0  0  0  0  0  0  0
  2  1  1  1
  2  3  1  0
  3  4  1  0
  4  5  1  0
  4  6  1  0
  2  7  1  0
  7  8  2  0
  7  9  1  0
  9 10  1  0
 10 11  1  0
 11 12  1  0
 11 13  1  0
  9 14  1  0
 14 15  1  0
 15 16  2  0
 15 17  1  0
 17 18  1  0
 18 19  1  6
 19 20  1  0
 20 21  3  0
 18 22  1  0
 22 23  2  0
 22 24  1  0
M  END
$$$$

     RDKit          2D

 24 23  0  0  0  0  0  0  0  0999 V2000
    3.8971    2.2500    0.0000 N   0  0  0  0  0  0  0  0  0  0  0  0
    2.5981    3.0000    0.0000 C   0  0  0  0  0  0  0  0  0  0  0  0
    1.2990    2.2500    0.0000 C   0  0  0  0  0  0  0  0  0  0  0  0
    1.2990    0.7500    0.0000 C   0  0  0  0  0  0  0  0  0  0  0  0
    0.0000    0.0000    0.0000 C   0  0  0  0  0  0  0  0  0  0  0  0
    2.5981   -0.0000    0.0000 C   0  0  0  0  0  0  0  0  0  0  0  0
    2.5981    4.5000    0.0000 C   0  0  0  0  0  0  0  0  0  0  0  0
    1.2990    5.2500    0.0000 O   0  0  0  0  0  0  0  0  0  0  0  0
    3.8971    5.2500    0.0000 N   0  0  0  0  0  0  0  0  0  0  0  0
    3.8971    6.7500    0.0000 C   0  0  0  0  0  0  0  0  0  0  0  0
    2.5981    7.5000    0.0000 C   0  0  0  0  0  0  0  0  0  0  0  0
    2.5981    9.0000    0.0000 C   0  0  0  0  0  0  0  0  0  0  0  0
    1.2990    6.7500    0.0000 C   0  0  0  0  0  0  0  0  0  0  0  0
    5.1962    4.5000    0.0000 C   0  0  0  0  0  0  0  0  0  0  0  0
    6.4952    5.2500    0.0000 C   0  0  0  0  0  0  0  0  0  0  0  0
    6.4952    6.7500    0.0000 O   0  0  0  0  0  0  0  0  0  0  0  0
    7.7942    4.5000    0.0000 N   0  0  0  0  0  0  0  0  0  0  0  0
    9.0933    5.2500    0.0000 C   0  0  0  0  0  0  0  0  0  0  0  0
   10.3923    4.5000    0.0000 C   0  0  0  0  0  0  0  0  0  0  0  0
   11.6913    5.2500    0.0000 C   0  0  0  0  0  0  0  0  0  0  0  0
   12.9904    6.0000    0.0000 C   0  0  0  0  0  0  0  0  0  0  0  0
    9.0933    6.7500    0.0000 C   0  0  0  0  0  0  0  0  0  0  0  0
    7.7942    7.5000    0.0000 O   0  0  0  0  0  0  0  0  0  0  0  0
   10.3923    7.5000    0.0000 O   0  0  0  0  0  0  0  0  0  0  0  0
  2  1  1  6
  2  3  1  0
  3  4  1  0
  4  5  1  0
  4  6  1  0
  2  7  1  0
  7  8  2  0
  7  9  1  0
  9 10  1  0
 10 11  1  0
 11 12  1  0
 11 13  1  0
  9 14  1  0
 14 15  1  0
 15 16  2  0
 15 17  1  0
 17 18  1  0
 18 19  1  6
 19 20  1  0
 20 21  3  0
 18 22  1  0
 22 23  2  0
 22 24  1  0
M  END
$$$$

     RDKit          2D

 23 22  0  0  0  0  0  0  0  0999 V2000
    0.0000    3.0000    0.0000 N   0  0  0  0  0  0  0  0  0  0  0  0
    1.2990    2.2500    0.0000 C   0  0  0  0  0  0  0  0  0  0  0  0
    1.2990    0.7500    0.0000 C   0  0  0  0  0  0  0  0  0  0  0  0
    0.0000    0.0000    0.0000 C   0  0  0  0  0  0  0  0  0  0  0  0
    2.5981   -0.0000    0.0000 C   0  0  0  0  0  0  0  0  0  0  0  0
    2.5981    3.0000    0.0000 C   0  0  0  0  0  0  0  0  0  0  0  0
    3.8971    2.2500    0.0000 O   0  0  0  0  0  0  0  0  0  0  0  0
    2.5981    4.5000    0.0000 N   0  0  0  0  0  0  0  0  0  0  0  0
    3.8971    5.2500    0.0000 C   0  0  0  0  0  0  0  0  0  0  0  0
    5.1962    4.5000    0.0000 C   0  0  0  0  0  0  0  0  0  0  0  0
    6.4952    5.2500    0.0000 C   0  0  0  0  0  0  0  0  0  0  0  0
    5.1962    3.0000    0.0000 C   0  0  0  0  0  0  0  0  0  0  0  0
    1.2990    5.2500    0.0000 C   0  0  0  0  0  0  0  0  0  0  0  0
    1.2990    6.7500    0.0000 C   0  0  0  0  0  0  0  0  0  0  0  0
    2.5981    7.5000    0.0000 O   0  0  0  0  0  0  0  0  0  0  0  0
    0.0000    7.5000    0.0000 N   0  0  0  0  0  0  0  0  0  0  0  0
    0.0000    9.0000    0.0000 C   0  0  0  0  0  0  0  0  0  0  0  0
   -1.2990    9.7500    0.0000 C   0  0  0  0  0  0  0  0  0  0  0  0
   -1.2990   11.2500    0.0000 C   0  0  0  0  0  0  0  0  0  0  0  0
   -1.2990   12.7500    0.0000 C   0  0  0  0  0  0  0  0  0  0  0  0
    1.2990    9.7500    0.0000 C   0  0  0  0  0  0  0  0  0  0  0  0
    2.5981    9.0000    0.0000 O   0  0  0  0  0  0  0  0  0  0  0  0
    1.2990   11.2500    0.0000 O   0  0  0  0  0  0  0  0  0  0  0  0
  2  1  1  6
  2  3  1  0
  3  4  1  0
  3  5  1  0
  2  6  1  0
  6  7  2  0
  6  8  1  0
  8  9  1  0
  9 10  1  0
 10 11  1  0
 10 12  1  0
  8 13  1  0
 13 14  1  0
 14 15  2  0
 14 16  1  0
 16 17  1  0
 17 18  1  1
 18 19  1  0
 19 20  3  0
 17 21  1  0
 21 22  2  0
 21 23  1  0
M  END
$$$$

     RDKit          2D

 23 22  0  0  0  0  0  0  0  0999 V2000
    0.0000    3.0000    0.0000 N   0  0  0  0  0  0  0  0  0  0  0  0
    1.2990    2.2500    0.0000 C   0  0  0  0  0  0  0  0  0  0  0  0
    1.2990    0.7500    0.0000 C   0  0  0  0  0  0  0  0  0  0  0  0
    0.0000    0.0000    0.0000 C   0  0  0  0  0  0  0  0  0  0  0  0
    2.5981   -0.0000    0.0000 C   0  0  0  0  0  0  0  0  0  0  0  0
    2.5981    3.0000    0.0000 C   0  0  0  0  0  0  0  0  0  0  0  0
    3.8971    2.2500    0.0000 O   0  0  0  0  0  0  0  0  0  0  0  0
    2.5981    4.5000    0.0000 N   0  0  0  0  0  0  0  0  0  0  0  0
    3.8971    5.2500    0.0000 C   0  0  0  0  0  0  0  0  0  0  0  0
    5.1962    4.5000    0.0000 C   0  0  0  0  0  0  0  0  0  0  0  0
    6.4952    5.2500    0.0000 C   0  0  0  0  0  0  0  0  0  0  0  0
    5.1962    3.0000    0.0000 C   0  0  0  0  0  0  0  0  0  0  0  0
    1.2990    5.2500    0.0000 C   0  0  0  0  0  0  0  0  0  0  0  0
    1.2990    6.7500    0.0000 C   0  0  0  0  0  0  0  0  0  0  0  0
    2.5981    7.5000    0.0000 O   0  0  0  0  0  0  0  0  0  0  0  0
    0.0000    7.5000    0.0000 N   0  0  0  0  0  0  0  0  0  0  0  0
    0.0000    9.0000    0.0000 C   0  0  0  0  0  0  0  0  0  0  0  0
   -1.2990    9.7500    0.0000 C   0  0  0  0  0  0  0  0  0  0  0  0
   -1.2990   11.2500    0.0000 C   0  0  0  0  0  0  0  0  0  0  0  0
   -1.2990   12.7500    0.0000 C   0  0  0  0  0  0  0  0  0  0  0  0
    1.2990    9.7500    0.0000 C   0  0  0  0  0  0  0  0  0  0  0  0
    2.5981    9.0000    0.0000 O   0  0  0  0  0  0  0  0  0  0  0  0
    1.2990   11.2500    0.0000 O   0  0  0  0  0  0  0  0  0  0  0  0
  2  1  1  1
  2  3  1  0
  3  4  1  0
  3  5  1  0
  2  6  1  0
  6  7  2  0
  6  8  1  0
  8  9  1  0
  9 10  1  0
 10 11  1  0
 10 12  1  0
  8 13  1  0
 13 14  1  0
 14 15  2  0
 14 16  1  0
 16 17  1  0
 17 18  1  1
 18 19  1  0
 19 20  3  0
 17 21  1  0
 21 22  2  0
 21 23  1  0
M  END
$$$$

     RDKit          2D

 25 24  0  0  0  0  0  0  0  0999 V2000
    1.2990   -3.7500    0.0000 N   0  0  0  0  0  0  0  0  0  0  0  0
    2.5981   -4.5000    0.0000 C   0  0  0  0  0  0  0  0  0  0  0  0
    1.2990   -2.2500    0.0000 C   0  0  0  0  0  0  0  0  0  0  0  0
   -0.0000   -1.5000    0.0000 C   0  0  0  0  0  0  0  0  0  0  0  0
   -0.0000   -0.0000    0.0000 C   0  0  0  0  0  0  0  0  0  0  0  0
   -1.2990    0.7500    0.0000 C   0  0  0  0  0  0  0  0  0  0  0  0
    1.2990    0.7500    0.0000 C   0  0  0  0  0  0  0  0  0  0  0  0
    2.5981   -1.5000    0.0000 C   0  0  0  0  0  0  0  0  0  0  0  0
    2.5981   -0.0000    0.0000 O   0  0  0  0  0  0  0  0  0  0  0  0
    3.8971   -2.2500    0.0000 N   0  0  0  0  0  0  0  0  0  0  0  0
    3.8971   -3.7500    0.0000 C   0  0  0  0  0  0  0  0  0  0  0  0
    5.1962   -4.5000    0.0000 C   0  0  0  0  0  0  0  0  0  0  0  0
    5.1962   -6.0000    0.0000 C   0  0  0  0  0  0  0  0  0  0  0  0
    6.4952   -3.7500    0.0000 C   0  0  0  0  0  0  0  0  0  0  0  0
    5.1962   -1.5000    0.0000 C   0  0  0  0  0  0  0  0  0  0  0  0
    5.1962    0.0000    0.0000 C   0  0  0  0  0  0  0  0  0  0  0  0
    3.8971    0.7500    0.0000 O   0  0  0  0  0  0  0  0  0  0  0  0
    6.4952    0.7500    0.0000 N   0  0  0  0  0  0  0  0  0  0  0  0
    6.4952    2.2500    0.0000 C   0  0  0  0  0  0  0  0  0  0  0  0
    7.7942    3.0000    0.0000 C   0  0  0  0  0  0  0  0  0  0  0  0
    7.7942    4.5000    0.0000 C   0  0  0  0  0  0  0  0  0  0  0  0
    7.7942    6.0000    0.0000 C   0  0  0  0  0  0  0  0  0  0  0  0
    5.1962    3.0000    0.0000 C   0  0  0  0  0  0  0  0  0  0  0  0
    3.8971    2.2500    0.0000 O   0  0  0  0  0  0  0  0  0  0  0  0
    5.1962    4.5000    0.0000 O   0  0  0  0  0  0  0  0  0  0  0  0
  1  2  1  0
  1  3  1  0
  3  4  1  1
  4  5  1  0
  5  6  1  0
  5  7  1  0
  3  8  1  0
  8  9  2  0
  8 10  1  0
 10 11  1  0
 11 12  1  0
 12 13  1  0
 12 14  1  0
 10 15  1  0
 15 16  1  0
 16 17  2  0
 16 18  1  0
 18 19  1  0
 19 20  1  6
 20 21  1  0
 21 22  3  0
 19 23  1  0
 23 24  2  0
 23 25  1  0
M  END
$$$$

     RDKit          2D

 25 24  0  0  0  0  0  0  0  0999 V2000
    1.2990   -3.7500    0.0000 N   0  0  0  0  0  0  0  0  0  0  0  0
    2.5981   -4.5000    0.0000 C   0  0  0  0  0  0  0  0  0  0  0  0
    1.2990   -2.2500    0.0000 C   0  0  0  0  0  0  0  0  0  0  0  0
   -0.0000   -1.5000    0.0000 C   0  0  0  0  0  0  0  0  0  0  0  0
   -0.0000   -0.0000    0.0000 C   0  0  0  0  0  0  0  0  0  0  0  0
   -1.2990    0.7500    0.0000 C   0  0  0  0  0  0  0  0  0  0  0  0
    1.2990    0.7500    0.0000 C   0  0  0  0  0  0  0  0  0  0  0  0
    2.5981   -1.5000    0.0000 C   0  0  0  0  0  0  0  0  0  0  0  0
    2.5981   -0.0000    0.0000 O   0  0  0  0  0  0  0  0  0  0  0  0
    3.8971   -2.2500    0.0000 N   0  0  0  0  0  0  0  0  0  0  0  0
    3.8971   -3.7500    0.0000 C   0  0  0  0  0  0  0  0  0  0  0  0
    5.1962   -4.5000    0.0000 C   0  0  0  0  0  0  0  0  0  0  0  0
    5.1962   -6.0000    0.0000 C   0  0  0  0  0  0  0  0  0  0  0  0
    6.4952   -3.7500    0.0000 C   0  0  0  0  0  0  0  0  0  0  0  0
    5.1962   -1.5000    0.0000 C   0  0  0  0  0  0  0  0  0  0  0  0
    5.1962    0.0000    0.0000 C   0  0  0  0  0  0  0  0  0  0  0  0
    3.8971    0.7500    0.0000 O   0  0  0  0  0  0  0  0  0  0  0  0
    6.4952    0.7500    0.0000 N   0  0  0  0  0  0  0  0  0  0  0  0
    6.4952    2.2500    0.0000 C   0  0  0  0  0  0  0  0  0  0  0  0
    7.7942    3.0000    0.0000 C   0  0  0  0  0  0  0  0  0  0  0  0
    7.7942    4.5000    0.0000 C   0  0  0  0  0  0  0  0  0  0  0  0
    7.7942    6.0000    0.0000 C   0  0  0  0  0  0  0  0  0  0  0  0
    5.1962    3.0000    0.0000 C   0  0  0  0  0  0  0  0  0  0  0  0
    3.8971    2.2500    0.0000 O   0  0  0  0  0  0  0  0  0  0  0  0
    5.1962    4.5000    0.0000 O   0  0  0  0  0  0  0  0  0  0  0  0
  1  2  1  0
  1  3  1  0
  3  4  1  6
  4  5  1  0
  5  6  1  0
  5  7  1  0
  3  8  1  0
  8  9  2  0
  8 10  1  0
 10 11  1  0
 11 12  1  0
 12 13  1  0
 12 14  1  0
 10 15  1  0
 15 16  1  0
 16 17  2  0
 16 18  1  0
 18 19  1  0
 19 20  1  6
 20 21  1  0
 21 22  3  0
 19 23  1  0
 23 24  2  0
 23 25  1  0
M  END
$$$$

     RDKit          2D

 27 27  0  0  0  0  0  0  0  0999 V2000
    3.0000   -2.5981    0.0000 N   0  0  0  0  0  0  0  0  0  0  0  0
    3.7500   -1.2990    0.0000 C   0  0  0  0  0  0  0  0  0  0  0  0
    3.0000    0.0000    0.0000 C   0  0  0  0  0  0  0  0  0  0  0  0
    1.5000    0.0000    0.0000 C   0  0  0  0  0  0  0  0  0  0  0  0
    0.7500   -1.2990    0.0000 C   0  0  0  0  0  0  0  0  0  0  0  0
   -0.7500   -1.2990    0.0000 C   0  0  0  0  0  0  0  0  0  0  0  0
   -1.5000    0.0000    0.0000 C   0  0  0  0  0  0  0  0  0  0  0  0
   -0.7500    1.2990    0.0000 C   0  0  0  0  0  0  0  0  0  0  0  0
    0.7500    1.2990    0.0000 C   0  0  0  0  0  0  0  0  0  0  0  0
    5.2500   -1.2990    0.0000 C   0  0  0  0  0  0  0  0  0  0  0  0
    6.0000    0.0000    0.0000 O   0  0  0  0  0  0  0  0  0  0  0  0
    6.0000   -2.5981    0.0000 N   0  0  0  0  0  0  0  0  0  0  0  0
    7.5000   -2.5981    0.0000 C   0  0  0  0  0  0  0  0  0  0  0  0
    8.2500   -1.2990    0.0000 C   0  0  0  0  0  0  0  0  0  0  0  0
    9.7500   -1.2990    0.0000 C   0  0  0  0  0  0  0  0  0  0  0  0
    7.5000    0.0000    0.0000 C   0  0  0  0  0  0  0  0  0  0  0  0
    5.2500   -3.8971    0.0000 C   0  0  0  0  0  0  0  0  0  0  0  0
    6.0000   -5.1962    0.0000 C   0  0  0  0  0  0  0  0  0  0  0  0
    7.5000   -5.1962    0.0000 O   0  0  0  0  0  0  0  0  0  0  0  0
    5.2500   -6.4952    0.0000 N   0  0  0  0  0  0  0  0  0  0  0  0
    6.0000   -7.7942    0.0000 C   0  0  0  0  0  0  0  0  0  0  0  0
    5.2500   -9.0933    0.0000 C   0  0  0  0  0  0  0  0  0  0  0  0
    6.0000  -10.3923    0.0000 C   0  0  0  0  0  0  0  0  0  0  0  0
    6.7500  -11.6913    0.0000 C   0  0  0  0  0  0  0  0  0  0  0  0
    7.5000   -7.7942    0.0000 C   0  0  0  0  0  0  0  0  0  0  0  0
    8.2500   -6.4952    0.0000 O   0  0  0  0  0  0  0  0  0  0  0  0
    8.2500   -9.0933    0.0000 O   0  0  0  0  0  0  0  0  0  0  0  0
  2  1  1  1
  2  3  1  0
  3  4  1  0
  4  5  2  0
  5  6  1  0
  6  7  2  0
  7  8  1  0
  8  9  2  0
  2 10  1  0
 10 11  2  0
 10 12  1  0
 12 13  1  0
 13 14  1  0
 14 15  1  0
 14 16  1  0
 12 17  1  0
 17 18  1  0
 18 19  2  0
 18 20  1  0
 20 21  1  0
 21 22  1  6
 22 23  1  0
 23 24  3  0
 21 25  1  0
 25 26  2  0
 25 27  1  0
  9  4  1  0
M  END
$$$$

     RDKit          2D

 27 27  0  0  0  0  0  0  0  0999 V2000
    3.0000   -2.5981    0.0000 N   0  0  0  0  0  0  0  0  0  0  0  0
    3.7500   -1.2990    0.0000 C   0  0  0  0  0  0  0  0  0  0  0  0
    3.0000    0.0000    0.0000 C   0  0  0  0  0  0  0  0  0  0  0  0
    1.5000    0.0000    0.0000 C   0  0  0  0  0  0  0  0  0  0  0  0
    0.7500   -1.2990    0.0000 C   0  0  0  0  0  0  0  0  0  0  0  0
   -0.7500   -1.2990    0.0000 C   0  0  0  0  0  0  0  0  0  0  0  0
   -1.5000    0.0000    0.0000 C   0  0  0  0  0  0  0  0  0  0  0  0
   -0.7500    1.2990    0.0000 C   0  0  0  0  0  0  0  0  0  0  0  0
    0.7500    1.2990    0.0000 C   0  0  0  0  0  0  0  0  0  0  0  0
    5.2500   -1.2990    0.0000 C   0  0  0  0  0  0  0  0  0  0  0  0
    6.0000    0.0000    0.0000 O   0  0  0  0  0  0  0  0  0  0  0  0
    6.0000   -2.5981    0.0000 N   0  0  0  0  0  0  0  0  0  0  0  0
    7.5000   -2.5981    0.0000 C   0  0  0  0  0  0  0  0  0  0  0  0
    8.2500   -1.2990    0.0000 C   0  0  0  0  0  0  0  0  0  0  0  0
    9.7500   -1.2990    0.0000 C   0  0  0  0  0  0  0  0  0  0  0  0
    7.5000    0.0000    0.0000 C   0  0  0  0  0  0  0  0  0  0  0  0
    5.2500   -3.8971    0.0000 C   0  0  0  0  0  0  0  0  0  0  0  0
    6.0000   -5.1962    0.0000 C   0  0  0  0  0  0  0  0  0  0  0  0
    7.5000   -5.1962    0.0000 O   0  0  0  0  0  0  0  0  0  0  0  0
    5.2500   -6.4952    0.0000 N   0  0  0  0  0  0  0  0  0  0  0  0
    6.0000   -7.7942    0.0000 C   0  0  0  0  0  0  0  0  0  0  0  0
    5.2500   -9.0933    0.0000 C   0  0  0  0  0  0  0  0  0  0  0  0
    6.0000  -10.3923    0.0000 C   0  0  0  0  0  0  0  0  0  0  0  0
    6.7500  -11.6913    0.0000 C   0  0  0  0  0  0  0  0  0  0  0  0
    7.5000   -7.7942    0.0000 C   0  0  0  0  0  0  0  0  0  0  0  0
    8.2500   -6.4952    0.0000 O   0  0  0  0  0  0  0  0  0  0  0  0
    8.2500   -9.0933    0.0000 O   0  0  0  0  0  0  0  0  0  0  0  0
  2  1  1  6
  2  3  1  0
  3  4  1  0
  4  5  2  0
  5  6  1  0
  6  7  2  0
  7  8  1  0
  8  9  2  0
  2 10  1  0
 10 11  2  0
 10 12  1  0
 12 13  1  0
 13 14  1  0
 14 15  1  0
 14 16  1  0
 12 17  1  0
 17 18  1  0
 18 19  2  0
 18 20  1  0
 20 21  1  0
 21 22  1  6
 22 23  1  0
 23 24  3  0
 21 25  1  0
 25 26  2  0
 25 27  1  0
  9  4  1  0
M  END
$$$$

     RDKit          2D

 28 28  0  0  0  0  0  0  0  0999 V2000
    3.0000   -2.5981    0.0000 N   0  0  0  0  0  0  0  0  0  0  0  0
    3.7500   -3.8971    0.0000 C   0  0  0  0  0  0  0  0  0  0  0  0
    3.7500   -1.2990    0.0000 C   0  0  0  0  0  0  0  0  0  0  0  0
    3.0000    0.0000    0.0000 C   0  0  0  0  0  0  0  0  0  0  0  0
    1.5000    0.0000    0.0000 C   0  0  0  0  0  0  0  0  0  0  0  0
    0.7500   -1.2990    0.0000 C   0  0  0  0  0  0  0  0  0  0  0  0
   -0.7500   -1.2990    0.0000 C   0  0  0  0  0  0  0  0  0  0  0  0
   -1.5000    0.0000    0.0000 C   0  0  0  0  0  0  0  0  0  0  0  0
   -0.7500    1.2990    0.0000 C   0  0  0  0  0  0  0  0  0  0  0  0
    0.7500    1.2990    0.0000 C   0  0  0  0  0  0  0  0  0  0  0  0
    5.2500   -1.2990    0.0000 C   0  0  0  0  0  0  0  0  0  0  0  0
    6.0000    0.0000    0.0000 O   0  0  0  0  0  0  0  0  0  0  0  0
    6.0000   -2.5981    0.0000 N   0  0  0  0  0  0  0  0  0  0  0  0
    7.5000   -2.5981    0.0000 C   0  0  0  0  0  0  0  0  0  0  0  0
    8.2500   -1.2990    0.0000 C   0  0  0  0  0  0  0  0  0  0  0  0
    9.7500   -1.2990    0.0000 C   0  0  0  0  0  0  0  0  0  0  0  0
    7.5000    0.0000    0.0000 C   0  0  0  0  0  0  0  0  0  0  0  0
    5.2500   -3.8971    0.0000 C   0  0  0  0  0  0  0  0  0  0  0  0
    6.0000   -5.1962    0.0000 C   0  0  0  0  0  0  0  0  0  0  0  0
    7.5000   -5.1962    0.0000 O   0  0  0  0  0  0  0  0  0  0  0  0
    5.2500   -6.4952    0.0000 N   0  0  0  0  0  0  0  0  0  0  0  0
    6.0000   -7.7942    0.0000 C   0  0  0  0  0  0  0  0  0  0  0  0
    5.2500   -9.0933    0.0000 C   0  0  0  0  0  0  0  0  0  0  0  0
    6.0000  -10.3923    0.0000 C   0  0  0  0  0  0  0  0  0  0  0  0
    6.7500  -11.6913    0.0000 C   0  0  0  0  0  0  0  0  0  0  0  0
    7.5000   -7.7942    0.0000 C   0  0  0  0  0  0  0  0  0  0  0  0
    8.2500   -6.4952    0.0000 O   0  0  0  0  0  0  0  0  0  0  0  0
    8.2500   -9.0933    0.0000 O   0  0  0  0  0  0  0  0  0  0  0  0
  1  2  1  0
  1  3  1  0
  3  4  1  1
  4  5  1  0
  5  6  2  0
  6  7  1  0
  7  8  2  0
  8  9  1  0
  9 10  2  0
  3 11  1  0
 11 12  2  0
 11 13  1  0
 13 14  1  0
 14 15  1  0
 15 16  1  0
 15 17  1  0
 13 18  1  0
 18 19  1  0
 19 20  2  0
 19 21  1  0
 21 22  1  0
 22 23  1  6
 23 24  1  0
 24 25  3  0
 22 26  1  0
 26 27  2  0
 26 28  1  0
 10  5  1  0
M  END
$$$$

     RDKit          2D

 28 28  0  0  0  0  0  0  0  0999 V2000
    3.0000   -2.5981    0.0000 N   0  0  0  0  0  0  0  0  0  0  0  0
    3.7500   -3.8971    0.0000 C   0  0  0  0  0  0  0  0  0  0  0  0
    3.7500   -1.2990    0.0000 C   0  0  0  0  0  0  0  0  0  0  0  0
    3.0000    0.0000    0.0000 C   0  0  0  0  0  0  0  0  0  0  0  0
    1.5000    0.0000    0.0000 C   0  0  0  0  0  0  0  0  0  0  0  0
    0.7500   -1.2990    0.0000 C   0  0  0  0  0  0  0  0  0  0  0  0
   -0.7500   -1.2990    0.0000 C   0  0  0  0  0  0  0  0  0  0  0  0
   -1.5000    0.0000    0.0000 C   0  0  0  0  0  0  0  0  0  0  0  0
   -0.7500    1.2990    0.0000 C   0  0  0  0  0  0  0  0  0  0  0  0
    0.7500    1.2990    0.0000 C   0  0  0  0  0  0  0  0  0  0  0  0
    5.2500   -1.2990    0.0000 C   0  0  0  0  0  0  0  0  0  0  0  0
    6.0000    0.0000    0.0000 O   0  0  0  0  0  0  0  0  0  0  0  0
    6.0000   -2.5981    0.0000 N   0  0  0  0  0  0  0  0  0  0  0  0
    7.5000   -2.5981    0.0000 C   0  0  0  0  0  0  0  0  0  0  0  0
    8.2500   -1.2990    0.0000 C   0  0  0  0  0  0  0  0  0  0  0  0
    9.7500   -1.2990    0.0000 C   0  0  0  0  0  0  0  0  0  0  0  0
    7.5000    0.0000    0.0000 C   0  0  0  0  0  0  0  0  0  0  0  0
    5.2500   -3.8971    0.0000 C   0  0  0  0  0  0  0  0  0  0  0  0
    6.0000   -5.1962    0.0000 C   0  0  0  0  0  0  0  0  0  0  0  0
    7.5000   -5.1962    0.0000 O   0  0  0  0  0  0  0  0  0  0  0  0
    5.2500   -6.4952    0.0000 N   0  0  0  0  0  0  0  0  0  0  0  0
    6.0000   -7.7942    0.0000 C   0  0  0  0  0  0  0  0  0  0  0  0
    5.2500   -9.0933    0.0000 C   0  0  0  0  0  0  0  0  0  0  0  0
    6.0000  -10.3923    0.0000 C   0  0  0  0  0  0  0  0  0  0  0  0
    6.7500  -11.6913    0.0000 C   0  0  0  0  0  0  0  0  0  0  0  0
    7.5000   -7.7942    0.0000 C   0  0  0  0  0  0  0  0  0  0  0  0
    8.2500   -6.4952    0.0000 O   0  0  0  0  0  0  0  0  0  0  0  0
    8.2500   -9.0933    0.0000 O   0  0  0  0  0  0  0  0  0  0  0  0
  1  2  1  0
  1  3  1  0
  3  4  1  6
  4  5  1  0
  5  6  2  0
  6  7  1  0
  7  8  2  0
  8  9  1  0
  9 10  2  0
  3 11  1  0
 11 12  2  0
 11 13  1  0
 13 14  1  0
 14 15  1  0
 15 16  1  0
 15 17  1  0
 13 18  1  0
 18 19  1  0
 19 20  2  0
 19 21  1  0
 21 22  1  0
 22 23  1  6
 23 24  1  0
 24 25  3  0
 22 26  1  0
 26 27  2  0
 26 28  1  0
 10  5  1  0
M  END
$$$$

     RDKit          2D

 23 22  0  0  0  0  0  0  0  0999 V2000
    2.5981   -1.5000    0.0000 N   0  0  0  0  0  0  0  0  0  0  0  0
    2.5981   -0.0000    0.0000 C   0  0  0  0  0  0  0  0  0  0  0  0
    1.2990    0.7500    0.0000 C   0  0  0  0  0  0  0  0  0  0  0  0
    1.2990    2.2500    0.0000 O   0  0  0  0  0  0  0  0  0  0  0  0
    0.0000    0.0000    0.0000 C   0  0  0  0  0  0  0  0  0  0  0  0
    3.8971    0.7500    0.0000 C   0  0  0  0  0  0  0  0  0  0  0  0
    3.8971    2.2500    0.0000 O   0  0  0  0  0  0  0  0  0  0  0  0
    5.1962   -0.0000    0.0000 N   0  0  0  0  0  0  0  0  0  0  0  0
    6.4952    0.7500    0.0000 C   0  0  0  0  0  0  0  0  0  0  0  0
    6.4952    2.2500    0.0000 C   0  0  0  0  0  0  0  0  0  0  0  0
    7.7942    3.0000    0.0000 C   0  0  0  0  0  0  0  0  0  0  0  0
    5.1962    3.0000    0.0000 C   0  0  0  0  0  0  0  0  0  0  0  0
    5.1962   -1.5000    0.0000 C   0  0  0  0  0  0  0  0  0  0  0  0
    6.4952   -2.2500    0.0000 C   0  0  0  0  0  0  0  0  0  0  0  0
    7.7942   -1.5000    0.0000 O   0  0  0  0  0  0  0  0  0  0  0  0
    6.4952   -3.7500    0.0000 N   0  0  0  0  0  0  0  0  0  0  0  0
    7.7942   -4.5000    0.0000 C   0  0  0  0  0  0  0  0  0  0  0  0
    7.7942   -6.0000    0.0000 C   0  0  0  0  0  0  0  0  0  0  0  0
    9.0933   -6.7500    0.0000 C   0  0  0  0  0  0  0  0  0  0  0  0
   10.3923   -7.5000    0.0000 C   0  0  0  0  0  0  0  0  0  0  0  0
    9.0933   -3.7500    0.0000 C   0  0  0  0  0  0  0  0  0  0  0  0
    9.0933   -2.2500    0.0000 O   0  0  0  0  0  0  0  0  0  0  0  0
   10.3923   -4.5000    0.0000 O   0  0  0  0  0  0  0  0  0  0  0  0
  2  1  1  1
  2  3  1  0
  3  4  1  0
  3  5  1  1
  2  6  1  0
  6  7  2  0
  6  8  1  0
  8  9  1  0
  9 10  1  0
 10 11  1  0
 10 12  1  0
  8 13  1  0
 13 14  1  0
 14 15  2  0
 14 16  1  0
 16 17  1  0
 17 18  1  6
 18 19  1  0
 19 20  3  0
 17 21  1  0
 21 22  2  0
 21 23  1  0
M  END
$$$$

     RDKit          2D

 23 22  0  0  0  0  0  0  0  0999 V2000
    2.5981   -1.5000    0.0000 N   0  0  0  0  0  0  0  0  0  0  0  0
    2.5981   -0.0000    0.0000 C   0  0  0  0  0  0  0  0  0  0  0  0
    1.2990    0.7500    0.0000 C   0  0  0  0  0  0  0  0  0  0  0  0
    1.2990    2.2500    0.0000 O   0  0  0  0  0  0  0  0  0  0  0  0
    0.0000    0.0000    0.0000 C   0  0  0  0  0  0  0  0  0  0  0  0
    3.8971    0.7500    0.0000 C   0  0  0  0  0  0  0  0  0  0  0  0
    3.8971    2.2500    0.0000 O   0  0  0  0  0  0  0  0  0  0  0  0
    5.1962   -0.0000    0.0000 N   0  0  0  0  0  0  0  0  0  0  0  0
    6.4952    0.7500    0.0000 C   0  0  0  0  0  0  0  0  0  0  0  0
    6.4952    2.2500    0.0000 C   0  0  0  0  0  0  0  0  0  0  0  0
    7.7942    3.0000    0.0000 C   0  0  0  0  0  0  0  0  0  0  0  0
    5.1962    3.0000    0.0000 C   0  0  0  0  0  0  0  0  0  0  0  0
    5.1962   -1.5000    0.0000 C   0  0  0  0  0  0  0  0  0  0  0  0
    6.4952   -2.2500    0.0000 C   0  0  0  0  0  0  0  0  0  0  0  0
    7.7942   -1.5000    0.0000 O   0  0  0  0  0  0  0  0  0  0  0  0
    6.4952   -3.7500    0.0000 N   0  0  0  0  0  0  0  0  0  0  0  0
    7.7942   -4.5000    0.0000 C   0  0  0  0  0  0  0  0  0  0  0  0
    7.7942   -6.0000    0.0000 C   0  0  0  0  0  0  0  0  0  0  0  0
    9.0933   -6.7500    0.0000 C   0  0  0  0  0  0  0  0  0  0  0  0
   10.3923   -7.5000    0.0000 C   0  0  0  0  0  0  0  0  0  0  0  0
    9.0933   -3.7500    0.0000 C   0  0  0  0  0  0  0  0  0  0  0  0
    9.0933   -2.2500    0.0000 O   0  0  0  0  0  0  0  0  0  0  0  0
   10.3923   -4.5000    0.0000 O   0  0  0  0  0  0  0  0  0  0  0  0
  2  1  1  6
  2  3  1  0
  3  4  1  0
  3  5  1  1
  2  6  1  0
  6  7  2  0
  6  8  1  0
  8  9  1  0
  9 10  1  0
 10 11  1  0
 10 12  1  0
  8 13  1  0
 13 14  1  0
 14 15  2  0
 14 16  1  0
 16 17  1  0
 17 18  1  6
 18 19  1  0
 19 20  3  0
 17 21  1  0
 21 22  2  0
 21 23  1  0
M  END
$$$$

     RDKit          2D

 24 23  0  0  0  0  0  0  0  0999 V2000
    1.2990    0.7500    0.0000 N   0  0  0  0  0  0  0  0  0  0  0  0
    0.0000    0.0000    0.0000 C   0  0  0  0  0  0  0  0  0  0  0  0
    2.5981   -0.0000    0.0000 C   0  0  0  0  0  0  0  0  0  0  0  0
    3.8971    0.7500    0.0000 C   0  0  0  0  0  0  0  0  0  0  0  0
    3.8971    2.2500    0.0000 O   0  0  0  0  0  0  0  0  0  0  0  0
    5.1962   -0.0000    0.0000 C   0  0  0  0  0  0  0  0  0  0  0  0
    2.5981   -1.5000    0.0000 C   0  0  0  0  0  0  0  0  0  0  0  0
    1.2990   -2.2500    0.0000 O   0  0  0  0  0  0  0  0  0  0  0  0
    3.8971   -2.2500    0.0000 N   0  0  0  0  0  0  0  0  0  0  0  0
    3.8971   -3.7500    0.0000 C   0  0  0  0  0  0  0  0  0  0  0  0
    2.5981   -4.5000    0.0000 C   0  0  0  0  0  0  0  0  0  0  0  0
    2.5981   -6.0000    0.0000 C   0  0  0  0  0  0  0  0  0  0  0  0
    1.2990   -3.7500    0.0000 C   0  0  0  0  0  0  0  0  0  0  0  0
    5.1962   -1.5000    0.0000 C   0  0  0  0  0  0  0  0  0  0  0  0
    6.4952   -2.2500    0.0000 C   0  0  0  0  0  0  0  0  0  0  0  0
    6.4952   -3.7500    0.0000 O   0  0  0  0  0  0  0  0  0  0  0  0
    7.7942   -1.5000    0.0000 N   0  0  0  0  0  0  0  0  0  0  0  0
    9.0933   -2.2500    0.0000 C   0  0  0  0  0  0  0  0  0  0  0  0
   10.3923   -1.5000    0.0000 C   0  0  0  0  0  0  0  0  0  0  0  0
   11.6913   -2.2500    0.0000 C   0  0  0  0  0  0  0  0  0  0  0  0
   12.9904   -3.0000    0.0000 C   0  0  0  0  0  0  0  0  0  0  0  0
    9.0933   -3.7500    0.0000 C   0  0  0  0  0  0  0  0  0  0  0  0
    7.7942   -4.5000    0.0000 O   0  0  0  0  0  0  0  0  0  0  0  0
   10.3923   -4.5000    0.0000 O   0  0  0  0  0  0  0  0  0  0  0  0
  1  2  1  0
  3  1  1  1
  3  4  1  0
  4  5  1  0
  4  6  1  6
  3  7  1  0
  7  8  2  0
  7  9  1  0
  9 10  1  0
 10 11  1  0
 11 12  1  0
 11 13  1  0
  9 14  1  0
 14 15  1  0
 15 16  2  0
 15 17  1  0
 17 18  1  0
 18 19  1  1
 19 20  1  0
 20 21  3  0
 18 22  1  0
 22 23  2  0
 22 24  1  0
M  END
$$$$

     RDKit          2D

 24 23  0  0  0  0  0  0  0  0999 V2000
    1.2990    0.7500    0.0000 N   0  0  0  0  0  0  0  0  0  0  0  0
    0.0000    0.0000    0.0000 C   0  0  0  0  0  0  0  0  0  0  0  0
    2.5981   -0.0000    0.0000 C   0  0  0  0  0  0  0  0  0  0  0  0
    3.8971    0.7500    0.0000 C   0  0  0  0  0  0  0  0  0  0  0  0
    3.8971    2.2500    0.0000 O   0  0  0  0  0  0  0  0  0  0  0  0
    5.1962   -0.0000    0.0000 C   0  0  0  0  0  0  0  0  0  0  0  0
    2.5981   -1.5000    0.0000 C   0  0  0  0  0  0  0  0  0  0  0  0
    1.2990   -2.2500    0.0000 O   0  0  0  0  0  0  0  0  0  0  0  0
    3.8971   -2.2500    0.0000 N   0  0  0  0  0  0  0  0  0  0  0  0
    3.8971   -3.7500    0.0000 C   0  0  0  0  0  0  0  0  0  0  0  0
    2.5981   -4.5000    0.0000 C   0  0  0  0  0  0  0  0  0  0  0  0
    2.5981   -6.0000    0.0000 C   0  0  0  0  0  0  0  0  0  0  0  0
    1.2990   -3.7500    0.0000 C   0  0  0  0  0  0  0  0  0  0  0  0
    5.1962   -1.5000    0.0000 C   0  0  0  0  0  0  0  0  0  0  0  0
    6.4952   -2.2500    0.0000 C   0  0  0  0  0  0  0  0  0  0  0  0
    6.4952   -3.7500    0.0000 O   0  0  0  0  0  0  0  0  0  0  0  0
    7.7942   -1.5000    0.0000 N   0  0  0  0  0  0  0  0  0  0  0  0
    9.0933   -2.2500    0.0000 C   0  0  0  0  0  0  0  0  0  0  0  0
   10.3923   -1.5000    0.0000 C   0  0  0  0  0  0  0  0  0  0  0  0
   11.6913   -2.2500    0.0000 C   0  0  0  0  0  0  0  0  0  0  0  0
   12.9904   -3.0000    0.0000 C   0  0  0  0  0  0  0  0  0  0  0  0
    9.0933   -3.7500    0.0000 C   0  0  0  0  0  0  0  0  0  0  0  0
    7.7942   -4.5000    0.0000 O   0  0  0  0  0  0  0  0  0  0  0  0
   10.3923   -4.5000    0.0000 O   0  0  0  0  0  0  0  0  0  0  0  0
  1  2  1  0
  3  1  1  6
  3  4  1  0
  4  5  1  0
  4  6  1  6
  3  7  1  0
  7  8  2  0
  7  9  1  0
  9 10  1  0
 10 11  1  0
 11 12  1  0
 11 13  1  0
  9 14  1  0
 14 15  1  0
 15 16  2  0
 15 17  1  0
 17 18  1  0
 18 19  1  1
 19 20  1  0
 20 21  3  0
 18 22  1  0
 22 23  2  0
 22 24  1  0
M  END
$$$$

     RDKit          2D

 24 23  0  0  0  0  0  0  0  0999 V2000
    2.5981    3.0000    0.0000 N   0  0  0  0  0  0  0  0  0  0  0  0
    1.2990    2.2500    0.0000 C   0  0  0  0  0  0  0  0  0  0  0  0
    1.2990    0.7500    0.0000 C   0  0  0  0  0  0  0  0  0  0  0  0
    0.0000    0.0000    0.0000 C   0  0  0  0  0  0  0  0  0  0  0  0
    2.5981   -0.0000    0.0000 C   0  0  0  0  0  0  0  0  0  0  0  0
    2.5981    4.5000    0.0000 C   0  0  0  0  0  0  0  0  0  0  0  0
    3.8971    5.2500    0.0000 C   0  0  0  0  0  0  0  0  0  0  0  0
    5.1962    4.5000    0.0000 O   0  0  0  0  0  0  0  0  0  0  0  0
    3.8971    6.7500    0.0000 N   0  0  0  0  0  0  0  0  0  0  0  0
    5.1962    7.5000    0.0000 C   0  0  0  0  0  0  0  0  0  0  0  0
    5.1962    9.0000    0.0000 C   0  0  0  0  0  0  0  0  0  0  0  0
    6.4952    9.7500    0.0000 C   0  0  0  0  0  0  0  0  0  0  0  0
    3.8971    9.7500    0.0000 C   0  0  0  0  0  0  0  0  0  0  0  0
    2.5981    7.5000    0.0000 C   0  0  0  0  0  0  0  0  0  0  0  0
    1.2990    6.7500    0.0000 C   0  0  0  0  0  0  0  0  0  0  0  0
    1.2990    5.2500    0.0000 O   0  0  0  0  0  0  0  0  0  0  0  0
    0.0000    7.5000    0.0000 N   0  0  0  0  0  0  0  0  0  0  0  0
   -1.2990    6.7500    0.0000 C   0  0  0  0  0  0  0  0  0  0  0  0
   -2.5981    7.5000    0.0000 C   0  0  0  0  0  0  0  0  0  0  0  0
   -3.8971    6.7500    0.0000 C   0  0  0  0  0  0  0  0  0  0  0  0
   -5.1962    6.0000    0.0000 C   0  0  0  0  0  0  0  0  0  0  0  0
   -1.2990    5.2500    0.0000 C   0  0  0  0  0  0  0  0  0  0  0  0
    0.0000    4.5000    0.0000 O   0  0  0  0  0  0  0  0  0  0  0  0
   -2.5981    4.5000    0.0000 O   0  0  0  0  0  0  0  0  0  0  0  0
  1  2  1  0
  2  3  1  0
  3  4  1  0
  3  5  1  0
  1  6  1  0
  6  7  1  0
  7  8  2  0
  7  9  1  0
  9 10  1  0
 10 11  1  0
 11 12  1  0
 11 13  1  0
  9 14  1  0
 14 15  1  0
 15 16  2  0
 15 17  1  0
 17 18  1  0
 18 19  1  6
 19 20  1  0
 20 21  3  0
 18 22  1  0
 22 23  2  0
 22 24  1  0
M  END
$$$$

     RDKit          2D

 27 26  0  0  0  0  0  0  0  0999 V2000
    3.8971    6.7500    0.0000 N   0  0  0  0  0  0  0  0  0  0  0  0
    3.8971    5.2500    0.0000 C   0  0  0  0  0  0  0  0  0  0  0  0
    2.5981    4.5000    0.0000 C   0  0  0  0  0  0  0  0  0  0  0  0
    2.5981    3.0000    0.0000 C   0  0  0  0  0  0  0  0  0  0  0  0
    1.2990    2.2500    0.0000 O   0  0  0  0  0  0  0  0  0  0  0  0
    1.2990    0.7500    0.0000 C   0  0  0  0  0  0  0  0  0  0  0  0
    0.0000    0.0000    0.0000 C   0  0  0  0  0  0  0  0  0  0  0  0
    2.5981   -0.0000    0.0000 C   0  0  0  0  0  0  0  0  0  0  0  0
    5.1962    7.5000    0.0000 C   0  0  0  0  0  0  0  0  0  0  0  0
    5.1962    9.0000    0.0000 C   0  0  0  0  0  0  0  0  0  0  0  0
    3.8971    9.7500    0.0000 O   0  0  0  0  0  0  0  0  0  0  0  0
    6.4952    9.7500    0.0000 N   0  0  0  0  0  0  0  0  0  0  0  0
    6.4952   11.2500    0.0000 C   0  0  0  0  0  0  0  0  0  0  0  0
    7.7942   12.0000    0.0000 C   0  0  0  0  0  0  0  0  0  0  0  0
    7.7942   13.5000    0.0000 C   0  0  0  0  0  0  0  0  0  0  0  0
    9.0933   11.2500    0.0000 C   0  0  0  0  0  0  0  0  0  0  0  0
    7.7942    9.0000    0.0000 C   0  0  0  0  0  0  0  0  0  0  0  0
    7.7942    7.5000    0.0000 C   0  0  0  0  0  0  0  0  0  0  0  0
    6.4952    6.7500    0.0000 O   0  0  0  0  0  0  0  0  0  0  0  0
    9.0933    6.7500    0.0000 N   0  0  0  0  0  0  0  0  0  0  0  0
    9.0933    5.2500    0.0000 C   0  0  0  0  0  0  0  0  0  0  0  0
   10.3923    4.5000    0.0000 C   0  0  0  0  0  0  0  0  0  0  0  0
   10.3923    3.0000    0.0000 C   0  0  0  0  0  0  0  0  0  0  0  0
   10.3923    1.5000    0.0000 C   0  0  0  0  0  0  0  0  0  0  0  0
    7.7942    4.5000    0.0000 C   0  0  0  0  0  0  0  0  0  0  0  0
    6.4952    5.2500    0.0000 O   0  0  0  0  0  0  0  0  0  0  0  0
    7.7942    3.0000    0.0000 O   0  0  0  0  0  0  0  0  0  0  0  0
  1  2  1  0
  2  3  1  0
  3  4  1  0
  4  5  1  0
  5  6  1  0
  6  7  1  0
  6  8  1  0
  1  9  1  0
  9 10  1  0
 10 11  2  0
 10 12  1  0
 12 13  1  0
 13 14  1  0
 14 15  1  0
 14 16  1  0
 12 17  1  0
 17 18  1  0
 18 19  2  0
 18 20  1  0
 20 21  1  0
 21 22  1  1
 22 23  1  0
 23 24  3  0
 21 25  1  0
 25 26  2  0
 25 27  1  0
M  END
$$$$

     RDKit          2D

 29 29  0  0  0  0  0  0  0  0999 V2000
    6.0000   -2.5981    0.0000 N   0  0  0  0  0  0  0  0  0  0  0  0
    5.2500   -1.2990    0.0000 C   0  0  0  0  0  0  0  0  0  0  0  0
    3.7500   -1.2990    0.0000 C   0  0  0  0  0  0  0  0  0  0  0  0
    3.0000    0.0000    0.0000 O   0  0  0  0  0  0  0  0  0  0  0  0
    1.5000    0.0000    0.0000 C   0  0  0  0  0  0  0  0  0  0  0  0
    0.7500   -1.2990    0.0000 C   0  0  0  0  0  0  0  0  0  0  0  0
   -0.7500   -1.2990    0.0000 C   0  0  0  0  0  0  0  0  0  0  0  0
   -1.5000    0.0000    0.0000 C   0  0  0  0  0  0  0  0  0  0  0  0
   -0.7500    1.2990    0.0000 C   0  0  0  0  0  0  0  0  0  0  0  0
    0.7500    1.2990    0.0000 C   0  0  0  0  0  0  0  0  0  0  0  0
    7.5000   -2.5981    0.0000 C   0  0  0  0  0  0  0  0  0  0  0  0
    8.2500   -3.8971    0.0000 C   0  0  0  0  0  0  0  0  0  0  0  0
    7.5000   -5.1962    0.0000 O   0  0  0  0  0  0  0  0  0  0  0  0
    9.7500   -3.8971    0.0000 N   0  0  0  0  0  0  0  0  0  0  0  0
   10.5000   -5.1962    0.0000 C   0  0  0  0  0  0  0  0  0  0  0  0
   12.0000   -5.1962    0.0000 C   0  0  0  0  0  0  0  0  0  0  0  0
   12.7500   -6.4952    0.0000 C   0  0  0  0  0  0  0  0  0  0  0  0
   12.7500   -3.8971    0.0000 C   0  0  0  0  0  0  0  0  0  0  0  0
   10.5000   -2.5981    0.0000 C   0  0  0  0  0  0  0  0  0  0  0  0
    9.7500   -1.2990    0.0000 C   0  0  0  0  0  0  0  0  0  0  0  0
    8.2500   -1.2990    0.0000 O   0  0  0  0  0  0  0  0  0  0  0  0
   10.5000    0.0000    0.0000 N   0  0  0  0  0  0  0  0  0  0  0  0
    9.7500    1.2990    0.0000 C   0  0  0  0  0  0  0  0  0  0  0  0
   10.5000    2.5981    0.0000 C   0  0  0  0  0  0  0  0  0  0  0  0
    9.7500    3.8971    0.0000 C   0  0  0  0  0  0  0  0  0  0  0  0
    9.0000    5.1962    0.0000 C   0  0  0  0  0  0  0  0  0  0  0  0
    8.2500    1.2990    0.0000 C   0  0  0  0  0  0  0  0  0  0  0  0
    7.5000    0.0000    0.0000 O   0  0  0  0  0  0  0  0  0  0  0  0
    7.5000    2.5981    0.0000 O   0  0  0  0  0  0  0  0  0  0  0  0
  1  2  1  0
  2  3  1  0
  3  4  1  0
  4  5  1  0
  5  6  2  0
  6  7  1  0
  7  8  2  0
  8  9  1  0
  9 10  2  0
  1 11  1  0
 11 12  1  0
 12 13  2  0
 12 14  1  0
 14 15  1  0
 15 16  1  0
 16 17  1  0
 16 18  1  0
 14 19  1  0
 19 20  1  0
 20 21  2  0
 20 22  1  0
 22 23  1  0
 23 24  1  6
 24 25  1  0
 25 26  3  0
 23 27  1  0
 27 28  2  0
 27 29  1  0
 10  5  1  0
M  END
$$$$

     RDKit          2D

 32 32  0  0  0  0  0  0  0  0999 V2000
    5.2500   -1.2990    0.0000 N   0  0  0  0  0  0  0  0  0  0  0  0
    3.7500   -1.2990    0.0000 C   0  0  0  0  0  0  0  0  0  0  0  0
    3.0000    0.0000    0.0000 C   0  0  0  0  0  0  0  0  0  0  0  0
    1.5000    0.0000    0.0000 C   0  0  0  0  0  0  0  0  0  0  0  0
    0.7500   -1.2990    0.0000 C   0  0  0  0  0  0  0  0  0  0  0  0
   -0.7500   -1.2990    0.0000 C   0  0  0  0  0  0  0  0  0  0  0  0
   -1.5000    0.0000    0.0000 C   0  0  0  0  0  0  0  0  0  0  0  0
   -0.7500    1.2990    0.0000 C   0  0  0  0  0  0  0  0  0  0  0  0
   -1.5000    2.5981    0.0000 O   0  0  0  0  0  0  0  0  0  0  0  0
   -0.7500    3.8971    0.0000 C   0  0  0  0  0  0  0  0  0  0  0  0
    0.7500    1.2990    0.0000 C   0  0  0  0  0  0  0  0  0  0  0  0
   -3.0000    0.0000    0.0000 O   0  0  0  0  0  0  0  0  0  0  0  0
   -3.7500    1.2990    0.0000 C   0  0  0  0  0  0  0  0  0  0  0  0
    6.0000   -2.5981    0.0000 C   0  0  0  0  0  0  0  0  0  0  0  0
    7.5000   -2.5981    0.0000 C   0  0  0  0  0  0  0  0  0  0  0  0
    8.2500   -1.2990    0.0000 O   0  0  0  0  0  0  0  0  0  0  0  0
    8.2500   -3.8971    0.0000 N   0  0  0  0  0  0  0  0  0  0  0  0
    9.7500   -3.8971    0.0000 C   0  0  0  0  0  0  0  0  0  0  0  0
   10.5000   -5.1962    0.0000 C   0  0  0  0  0  0  0  0  0  0  0  0
   12.0000   -5.1962    0.0000 C   0  0  0  0  0  0  0  0  0  0  0  0
    9.7500   -6.4952    0.0000 C   0  0  0  0  0  0  0  0  0  0  0  0
    7.5000   -5.1962    0.0000 C   0  0  0  0  0  0  0  0  0  0  0  0
    6.0000   -5.1962    0.0000 C   0  0  0  0  0  0  0  0  0  0  0  0
    5.2500   -3.8971    0.0000 O   0  0  0  0  0  0  0  0  0  0  0  0
    5.2500   -6.4952    0.0000 N   0  0  0  0  0  0  0  0  0  0  0  0
    3.7500   -6.4952    0.0000 C   0  0  0  0  0  0  0  0  0  0  0  0
    3.0000   -7.7942    0.0000 C   0  0  0  0  0  0  0  0  0  0  0  0
    1.5000   -7.7942    0.0000 C   0  0  0  0  0  0  0  0  0  0  0  0
    0.0000   -7.7942    0.0000 C   0  0  0  0  0  0  0  0  0  0  0  0
    3.0000   -5.1962    0.0000 C   0  0  0  0  0  0  0  0  0  0  0  0
    3.7500   -3.8971    0.0000 O   0  0  0  0  0  0  0  0  0  0  0  0
    1.5000   -5.1962    0.0000 O   0  0  0  0  0  0  0  0  0  0  0  0
  1  2  1  0
  2  3  1  0
  3  4  1  0
  4  5  2  0
  5  6  1  0
  6  7  2  0
  7  8  1  0
  8  9  1  0
  9 10  1  0
  8 11  2  0
  7 12  1  0
 12 13  1  0
  1 14  1  0
 14 15  1  0
 15 16  2  0
 15 17  1  0
 17 18  1  0
 18 19  1  0
 19 20  1  0
 19 21  1  0
 17 22  1  0
 22 23  1  0
 23 24  2  0
 23 25  1  0
 25 26  1  0
 26 27  1  1
 27 28  1  0
 28 29  3  0
 26 30  1  0
 30 31  2  0
 30 32  1  0
 11  4  1  0
M  END
$$$$

     RDKit          2D

 39 39  0  0  0  0  0  0  0  0999 V2000
    1.2760    5.1962    0.0000 N   0  0  0  0  0  0  0  0  0  0  0  0
    2.7760    5.1962    0.0000 C   0  0  0  0  0  0  0  0  0  0  0  0
    3.5260    6.4952    0.0000 C   0  0  0  0  0  0  0  0  0  0  0  0
    2.7760    7.7942    0.0000 C   0  0  0  0  0  0  0  0  0  0  0  0
    3.5260    9.0933    0.0000 C   0  0  0  0  0  0  0  0  0  0  0  0
    1.2760    7.7942    0.0000 C   0  0  0  0  0  0  0  0  0  0  0  0
    3.5260    3.8971    0.0000 C   0  0  0  0  0  0  0  0  0  0  0  0
    5.0260    3.8971    0.0000 O   0  0  0  0  0  0  0  0  0  0  0  0
    2.7760    2.5981    0.0000 N   0  0  0  0  0  0  0  0  0  0  0  0
    3.5260    1.2990    0.0000 C   0  0  0  0  0  0  0  0  0  0  0  0
    5.0260    1.2990    0.0000 C   0  0  0  0  0  0  0  0  0  0  0  0
    5.7760    0.0000    0.0000 C   0  0  0  0  0  0  0  0  0  0  0  0
    7.2760    0.0000    0.0000 C   0  0  0  0  0  0  0  0  0  0  0  0
    5.0260   -1.2990    0.0000 C   0  0  0  0  0  0  0  0  0  0  0  0
    2.7760    0.0000    0.0000 C   0  0  0  0  0  0  0  0  0  0  0  0
    3.5260   -1.2990    0.0000 O   0  0  0  0  0  0  0  0  0  0  0  0
    1.2760    0.0000    0.0000 N   0  0  0  0  0  0  0  0  0  0  0  0
    0.3943    1.2135    0.0000 C   0  0  0  0  0  0  0  0  0  0  0  0
   -1.0323    0.7500    0.0000 C   0  0  0  0  0  0  0  0  0  0  0  0
   -1.0323   -0.7500    0.0000 C   0  0  0  0  0  0  0  0  0  0  0  0
    0.3943   -1.2135    0.0000 C   0  0  0  0  0  0  0  0  0  0  0  0
    0.8578   -2.6401    0.0000 C   0  0  0  0  0  0  0  0  0  0  0  0
    2.3250   -2.9520    0.0000 O   0  0  0  0  0  0  0  0  0  0  0  0
   -0.1459   -3.7548    0.0000 N   0  0  0  0  0  0  0  0  0  0  0  0
    0.3177   -5.1814    0.0000 C   0  0  0  0  0  0  0  0  0  0  0  0
    1.7849   -5.4933    0.0000 C   0  0  0  0  0  0  0  0  0  0  0  0
    2.2484   -6.9199    0.0000 C   0  0  0  0  0  0  0  0  0  0  0  0
    2.7886   -4.3786    0.0000 C   0  0  0  0  0  0  0  0  0  0  0  0
   -1.6131   -3.4430    0.0000 C   0  0  0  0  0  0  0  0  0  0  0  0
   -2.6168   -4.5577    0.0000 C   0  0  0  0  0  0  0  0  0  0  0  0
   -2.1533   -5.9843    0.0000 O   0  0  0  0  0  0  0  0  0  0  0  0
   -4.0840   -4.2458    0.0000 N   0  0  0  0  0  0  0  0  0  0  0  0
   -5.0877   -5.3605    0.0000 C   0  0  0  0  0  0  0  0  0  0  0  0
   -6.5549   -5.0487    0.0000 C   0  0  0  0  0  0  0  0  0  0  0  0
   -7.5586   -6.1634    0.0000 C   0  0  0  0  0  0  0  0  0  0  0  0
   -8.5623   -7.2781    0.0000 C   0  0  0  0  0  0  0  0  0  0  0  0
   -4.6242   -6.7871    0.0000 C   0  0  0  0  0  0  0  0  0  0  0  0
   -3.1570   -7.0990    0.0000 O   0  0  0  0  0  0  0  0  0  0  0  0
   -5.6279   -7.9018    0.0000 O   0  0  0  0  0  0  0  0  0  0  0  0
  2  1  1  1
  2  3  1  0
  3  4  1  0
  4  5  1  0
  4  6  1  0
  2  7  1  0
  7  8  2  0
  7  9  1  0
  9 10  1  0
 10 11  1  1
 11 12  1  0
 12 13  1  0
 12 14  1  0
 10 15  1  0
 15 16  2  0
 15 17  1  0
 17 18  1  0
 18 19  1  0
 19 20  1  0
 20 21  1  0
 21 22  1  6
 22 23  2  0
 22 24  1  0
 24 25  1  0
 25 26  1  0
 26 27  1  0
 26 28  1  0
 24 29  1  0
 29 30  1  0
 30 31  2  0
 30 32  1  0
 32 33  1  0
 33 34  1  6
 34 35  1  0
 35 36  3  0
 33 37  1  0
 37 38  2  0
 37 39  1  0
 21 17  1  0
M  END
$$$$

     RDKit          2D

 39 39  0  0  0  0  0  0  0  0999 V2000
    1.2760    5.1962    0.0000 N   0  0  0  0  0  0  0  0  0  0  0  0
    2.7760    5.1962    0.0000 C   0  0  0  0  0  0  0  0  0  0  0  0
    3.5260    6.4952    0.0000 C   0  0  0  0  0  0  0  0  0  0  0  0
    2.7760    7.7942    0.0000 C   0  0  0  0  0  0  0  0  0  0  0  0
    3.5260    9.0933    0.0000 C   0  0  0  0  0  0  0  0  0  0  0  0
    1.2760    7.7942    0.0000 C   0  0  0  0  0  0  0  0  0  0  0  0
    3.5260    3.8971    0.0000 C   0  0  0  0  0  0  0  0  0  0  0  0
    5.0260    3.8971    0.0000 O   0  0  0  0  0  0  0  0  0  0  0  0
    2.7760    2.5981    0.0000 N   0  0  0  0  0  0  0  0  0  0  0  0
    3.5260    1.2990    0.0000 C   0  0  0  0  0  0  0  0  0  0  0  0
    5.0260    1.2990    0.0000 C   0  0  0  0  0  0  0  0  0  0  0  0
    5.7760    0.0000    0.0000 C   0  0  0  0  0  0  0  0  0  0  0  0
    7.2760    0.0000    0.0000 C   0  0  0  0  0  0  0  0  0  0  0  0
    5.0260   -1.2990    0.0000 C   0  0  0  0  0  0  0  0  0  0  0  0
    2.7760    0.0000    0.0000 C   0  0  0  0  0  0  0  0  0  0  0  0
    3.5260   -1.2990    0.0000 O   0  0  0  0  0  0  0  0  0  0  0  0
    1.2760    0.0000    0.0000 N   0  0  0  0  0  0  0  0  0  0  0  0
    0.3943    1.2135    0.0000 C   0  0  0  0  0  0  0  0  0  0  0  0
   -1.0323    0.7500    0.0000 C   0  0  0  0  0  0  0  0  0  0  0  0
   -1.0323   -0.7500    0.0000 C   0  0  0  0  0  0  0  0  0  0  0  0
    0.3943   -1.2135    0.0000 C   0  0  0  0  0  0  0  0  0  0  0  0
    0.8578   -2.6401    0.0000 C   0  0  0  0  0  0  0  0  0  0  0  0
    2.3250   -2.9520    0.0000 O   0  0  0  0  0  0  0  0  0  0  0  0
   -0.1459   -3.7548    0.0000 N   0  0  0  0  0  0  0  0  0  0  0  0
    0.3177   -5.1814    0.0000 C   0  0  0  0  0  0  0  0  0  0  0  0
    1.7849   -5.4933    0.0000 C   0  0  0  0  0  0  0  0  0  0  0  0
    2.2484   -6.9199    0.0000 C   0  0  0  0  0  0  0  0  0  0  0  0
    2.7886   -4.3786    0.0000 C   0  0  0  0  0  0  0  0  0  0  0  0
   -1.6131   -3.4430    0.0000 C   0  0  0  0  0  0  0  0  0  0  0  0
   -2.6168   -4.5577    0.0000 C   0  0  0  0  0  0  0  0  0  0  0  0
   -2.1533   -5.9843    0.0000 O   0  0  0  0  0  0  0  0  0  0  0  0
   -4.0840   -4.2458    0.0000 N   0  0  0  0  0  0  0  0  0  0  0  0
   -5.0877   -5.3605    0.0000 C   0  0  0  0  0  0  0  0  0  0  0  0
   -6.5549   -5.0487    0.0000 C   0  0  0  0  0  0  0  0  0  0  0  0
   -7.5586   -6.1634    0.0000 C   0  0  0  0  0  0  0  0  0  0  0  0
   -8.5623   -7.2781    0.0000 C   0  0  0  0  0  0  0  0  0  0  0  0
   -4.6242   -6.7871    0.0000 C   0  0  0  0  0  0  0  0  0  0  0  0
   -3.1570   -7.0990    0.0000 O   0  0  0  0  0  0  0  0  0  0  0  0
   -5.6279   -7.9018    0.0000 O   0  0  0  0  0  0  0  0  0  0  0  0
  2  1  1  6
  2  3  1  0
  3  4  1  0
  4  5  1  0
  4  6  1  0
  2  7  1  0
  7  8  2  0
  7  9  1  0
  9 10  1  0
 10 11  1  1
 11 12  1  0
 12 13  1  0
 12 14  1  0
 10 15  1  0
 15 16  2  0
 15 17  1  0
 17 18  1  0
 18 19  1  0
 19 20  1  0
 20 21  1  0
 21 22  1  6
 22 23  2  0
 22 24  1  0
 24 25  1  0
 25 26  1  0
 26 27  1  0
 26 28  1  0
 24 29  1  0
 29 30  1  0
 30 31  2  0
 30 32  1  0
 32 33  1  0
 33 34  1  6
 34 35  1  0
 35 36  3  0
 33 37  1  0
 37 38  2  0
 37 39  1  0
 21 17  1  0
M  END
$$$$

     RDKit          2D

 40 40  0  0  0  0  0  0  0  0999 V2000
    1.2760    5.1962    0.0000 N   0  0  0  0  0  0  0  0  0  0  0  0
    0.5260    6.4952    0.0000 C   0  0  0  0  0  0  0  0  0  0  0  0
    2.7760    5.1962    0.0000 C   0  0  0  0  0  0  0  0  0  0  0  0
    3.5260    6.4952    0.0000 C   0  0  0  0  0  0  0  0  0  0  0  0
    2.7760    7.7942    0.0000 C   0  0  0  0  0  0  0  0  0  0  0  0
    3.5260    9.0933    0.0000 C   0  0  0  0  0  0  0  0  0  0  0  0
    1.2760    7.7942    0.0000 C   0  0  0  0  0  0  0  0  0  0  0  0
    3.5260    3.8971    0.0000 C   0  0  0  0  0  0  0  0  0  0  0  0
    5.0260    3.8971    0.0000 O   0  0  0  0  0  0  0  0  0  0  0  0
    2.7760    2.5981    0.0000 N   0  0  0  0  0  0  0  0  0  0  0  0
    3.5260    1.2990    0.0000 C   0  0  0  0  0  0  0  0  0  0  0  0
    5.0260    1.2990    0.0000 C   0  0  0  0  0  0  0  0  0  0  0  0
    5.7760    0.0000    0.0000 C   0  0  0  0  0  0  0  0  0  0  0  0
    7.2760    0.0000    0.0000 C   0  0  0  0  0  0  0  0  0  0  0  0
    5.0260   -1.2990    0.0000 C   0  0  0  0  0  0  0  0  0  0  0  0
    2.7760    0.0000    0.0000 C   0  0  0  0  0  0  0  0  0  0  0  0
    3.5260   -1.2990    0.0000 O   0  0  0  0  0  0  0  0  0  0  0  0
    1.2760    0.0000    0.0000 N   0  0  0  0  0  0  0  0  0  0  0  0
    0.3943    1.2135    0.0000 C   0  0  0  0  0  0  0  0  0  0  0  0
   -1.0323    0.7500    0.0000 C   0  0  0  0  0  0  0  0  0  0  0  0
   -1.0323   -0.7500    0.0000 C   0  0  0  0  0  0  0  0  0  0  0  0
    0.3943   -1.2135    0.0000 C   0  0  0  0  0  0  0  0  0  0  0  0
    0.8578   -2.6401    0.0000 C   0  0  0  0  0  0  0  0  0  0  0  0
    2.3250   -2.9520    0.0000 O   0  0  0  0  0  0  0  0  0  0  0  0
   -0.1459   -3.7548    0.0000 N   0  0  0  0  0  0  0  0  0  0  0  0
    0.3177   -5.1814    0.0000 C   0  0  0  0  0  0  0  0  0  0  0  0
    1.7849   -5.4933    0.0000 C   0  0  0  0  0  0  0  0  0  0  0  0
    2.2484   -6.9199    0.0000 C   0  0  0  0  0  0  0  0  0  0  0  0
    2.7886   -4.3786    0.0000 C   0  0  0  0  0  0  0  0  0  0  0  0
   -1.6131   -3.4430    0.0000 C   0  0  0  0  0  0  0  0  0  0  0  0
   -2.6168   -4.5577    0.0000 C   0  0  0  0  0  0  0  0  0  0  0  0
   -2.1533   -5.9843    0.0000 O   0  0  0  0  0  0  0  0  0  0  0  0
   -4.0840   -4.2458    0.0000 N   0  0  0  0  0  0  0  0  0  0  0  0
   -5.0877   -5.3605    0.0000 C   0  0  0  0  0  0  0  0  0  0  0  0
   -6.5549   -5.0487    0.0000 C   0  0  0  0  0  0  0  0  0  0  0  0
   -7.5586   -6.1634    0.0000 C   0  0  0  0  0  0  0  0  0  0  0  0
   -8.5623   -7.2781    0.0000 C   0  0  0  0  0  0  0  0  0  0  0  0
   -4.6242   -6.7871    0.0000 C   0  0  0  0  0  0  0  0  0  0  0  0
   -3.1570   -7.0990    0.0000 O   0  0  0  0  0  0  0  0  0  0  0  0
   -5.6279   -7.9018    0.0000 O   0  0  0  0  0  0  0  0  0  0  0  0
  1  2  1  0
  1  3  1  0
  3  4  1  1
  4  5  1  0
  5  6  1  0
  5  7  1  0
  3  8  1  0
  8  9  2  0
  8 10  1  0
 10 11  1  0
 11 12  1  1
 12 13  1  0
 13 14  1  0
 13 15  1  0
 11 16  1  0
 16 17  2  0
 16 18  1  0
 18 19  1  0
 19 20  1  0
 20 21  1  0
 21 22  1  0
 22 23  1  6
 23 24  2  0
 23 25  1  0
 25 26  1  0
 26 27  1  0
 27 28  1  0
 27 29  1  0
 25 30  1  0
 30 31  1  0
 31 32  2  0
 31 33  1  0
 33 34  1  0
 34 35  1  6
 35 36  1  0
 36 37  3  0
 34 38  1  0
 38 39  2  0
 38 40  1  0
 22 18  1  0
M  END
$$$$

     RDKit          2D

 40 40  0  0  0  0  0  0  0  0999 V2000
    1.2760    5.1962    0.0000 N   0  0  0  0  0  0  0  0  0  0  0  0
    0.5260    6.4952    0.0000 C   0  0  0  0  0  0  0  0  0  0  0  0
    2.7760    5.1962    0.0000 C   0  0  0  0  0  0  0  0  0  0  0  0
    3.5260    6.4952    0.0000 C   0  0  0  0  0  0  0  0  0  0  0  0
    2.7760    7.7942    0.0000 C   0  0  0  0  0  0  0  0  0  0  0  0
    3.5260    9.0933    0.0000 C   0  0  0  0  0  0  0  0  0  0  0  0
    1.2760    7.7942    0.0000 C   0  0  0  0  0  0  0  0  0  0  0  0
    3.5260    3.8971    0.0000 C   0  0  0  0  0  0  0  0  0  0  0  0
    5.0260    3.8971    0.0000 O   0  0  0  0  0  0  0  0  0  0  0  0
    2.7760    2.5981    0.0000 N   0  0  0  0  0  0  0  0  0  0  0  0
    3.5260    1.2990    0.0000 C   0  0  0  0  0  0  0  0  0  0  0  0
    5.0260    1.2990    0.0000 C   0  0  0  0  0  0  0  0  0  0  0  0
    5.7760    0.0000    0.0000 C   0  0  0  0  0  0  0  0  0  0  0  0
    7.2760    0.0000    0.0000 C   0  0  0  0  0  0  0  0  0  0  0  0
    5.0260   -1.2990    0.0000 C   0  0  0  0  0  0  0  0  0  0  0  0
    2.7760    0.0000    0.0000 C   0  0  0  0  0  0  0  0  0  0  0  0
    3.5260   -1.2990    0.0000 O   0  0  0  0  0  0  0  0  0  0  0  0
    1.2760    0.0000    0.0000 N   0  0  0  0  0  0  0  0  0  0  0  0
    0.3943    1.2135    0.0000 C   0  0  0  0  0  0  0  0  0  0  0  0
   -1.0323    0.7500    0.0000 C   0  0  0  0  0  0  0  0  0  0  0  0
   -1.0323   -0.7500    0.0000 C   0  0  0  0  0  0  0  0  0  0  0  0
    0.3943   -1.2135    0.0000 C   0  0  0  0  0  0  0  0  0  0  0  0
    0.8578   -2.6401    0.0000 C   0  0  0  0  0  0  0  0  0  0  0  0
    2.3250   -2.9520    0.0000 O   0  0  0  0  0  0  0  0  0  0  0  0
   -0.1459   -3.7548    0.0000 N   0  0  0  0  0  0  0  0  0  0  0  0
    0.3177   -5.1814    0.0000 C   0  0  0  0  0  0  0  0  0  0  0  0
    1.7849   -5.4933    0.0000 C   0  0  0  0  0  0  0  0  0  0  0  0
    2.2484   -6.9199    0.0000 C   0  0  0  0  0  0  0  0  0  0  0  0
    2.7886   -4.3786    0.0000 C   0  0  0  0  0  0  0  0  0  0  0  0
   -1.6131   -3.4430    0.0000 C   0  0  0  0  0  0  0  0  0  0  0  0
   -2.6168   -4.5577    0.0000 C   0  0  0  0  0  0  0  0  0  0  0  0
   -2.1533   -5.9843    0.0000 O   0  0  0  0  0  0  0  0  0  0  0  0
   -4.0840   -4.2458    0.0000 N   0  0  0  0  0  0  0  0  0  0  0  0
   -5.0877   -5.3605    0.0000 C   0  0  0  0  0  0  0  0  0  0  0  0
   -6.5549   -5.0487    0.0000 C   0  0  0  0  0  0  0  0  0  0  0  0
   -7.5586   -6.1634    0.0000 C   0  0  0  0  0  0  0  0  0  0  0  0
   -8.5623   -7.2781    0.0000 C   0  0  0  0  0  0  0  0  0  0  0  0
   -4.6242   -6.7871    0.0000 C   0  0  0  0  0  0  0  0  0  0  0  0
   -3.1570   -7.0990    0.0000 O   0  0  0  0  0  0  0  0  0  0  0  0
   -5.6279   -7.9018    0.0000 O   0  0  0  0  0  0  0  0  0  0  0  0
  1  2  1  0
  1  3  1  0
  3  4  1  6
  4  5  1  0
  5  6  1  0
  5  7  1  0
  3  8  1  0
  8  9  2  0
  8 10  1  0
 10 11  1  0
 11 12  1  1
 12 13  1  0
 13 14  1  0
 13 15  1  0
 11 16  1  0
 16 17  2  0
 16 18  1  0
 18 19  1  0
 19 20  1  0
 20 21  1  0
 21 22  1  0
 22 23  1  6
 23 24  2  0
 23 25  1  0
 25 26  1  0
 26 27  1  0
 27 28  1  0
 27 29  1  0
 25 30  1  0
 30 31  1  0
 31 32  2  0
 31 33  1  0
 33 34  1  0
 34 35  1  6
 35 36  1  0
 36 37  3  0
 34 38  1  0
 38 39  2  0
 38 40  1  0
 22 18  1  0
M  END
$$$$

     RDKit          2D

 39 39  0  0  0  0  0  0  0  0999 V2000
    1.2760    5.1962    0.0000 N   0  0  0  0  0  0  0  0  0  0  0  0
    2.7760    5.1962    0.0000 C   0  0  0  0  0  0  0  0  0  0  0  0
    3.5260    6.4952    0.0000 C   0  0  0  0  0  0  0  0  0  0  0  0
    2.7760    7.7942    0.0000 C   0  0  0  0  0  0  0  0  0  0  0  0
    3.5260    9.0933    0.0000 C   0  0  0  0  0  0  0  0  0  0  0  0
    1.2760    7.7942    0.0000 C   0  0  0  0  0  0  0  0  0  0  0  0
    3.5260    3.8971    0.0000 C   0  0  0  0  0  0  0  0  0  0  0  0
    5.0260    3.8971    0.0000 O   0  0  0  0  0  0  0  0  0  0  0  0
    2.7760    2.5981    0.0000 N   0  0  0  0  0  0  0  0  0  0  0  0
    3.5260    1.2990    0.0000 C   0  0  0  0  0  0  0  0  0  0  0  0
    5.0260    1.2990    0.0000 C   0  0  0  0  0  0  0  0  0  0  0  0
    5.7760    0.0000    0.0000 C   0  0  0  0  0  0  0  0  0  0  0  0
    7.2760    0.0000    0.0000 C   0  0  0  0  0  0  0  0  0  0  0  0
    5.0260   -1.2990    0.0000 C   0  0  0  0  0  0  0  0  0  0  0  0
    2.7760    0.0000    0.0000 C   0  0  0  0  0  0  0  0  0  0  0  0
    3.5260   -1.2990    0.0000 O   0  0  0  0  0  0  0  0  0  0  0  0
    1.2760    0.0000    0.0000 N   0  0  0  0  0  0  0  0  0  0  0  0
    0.3943    1.2135    0.0000 C   0  0  0  0  0  0  0  0  0  0  0  0
   -1.0323    0.7500    0.0000 C   0  0  0  0  0  0  0  0  0  0  0  0
   -1.0323   -0.7500    0.0000 C   0  0  0  0  0  0  0  0  0  0  0  0
    0.3943   -1.2135    0.0000 C   0  0  0  0  0  0  0  0  0  0  0  0
    0.8578   -2.6401    0.0000 C   0  0  0  0  0  0  0  0  0  0  0  0
    2.3250   -2.9520    0.0000 O   0  0  0  0  0  0  0  0  0  0  0  0
   -0.1459   -3.7548    0.0000 N   0  0  0  0  0  0  0  0  0  0  0  0
    0.3177   -5.1814    0.0000 C   0  0  0  0  0  0  0  0  0  0  0  0
    1.7849   -5.4933    0.0000 C   0  0  0  0  0  0  0  0  0  0  0  0
    2.2484   -6.9199    0.0000 C   0  0  0  0  0  0  0  0  0  0  0  0
    2.7886   -4.3786    0.0000 C   0  0  0  0  0  0  0  0  0  0  0  0
   -1.6131   -3.4430    0.0000 C   0  0  0  0  0  0  0  0  0  0  0  0
   -2.6168   -4.5577    0.0000 C   0  0  0  0  0  0  0  0  0  0  0  0
   -2.1533   -5.9843    0.0000 O   0  0  0  0  0  0  0  0  0  0  0  0
   -4.0840   -4.2458    0.0000 N   0  0  0  0  0  0  0  0  0  0  0  0
   -5.0877   -5.3605    0.0000 C   0  0  0  0  0  0  0  0  0  0  0  0
   -6.5549   -5.0487    0.0000 C   0  0  0  0  0  0  0  0  0  0  0  0
   -7.5586   -6.1634    0.0000 C   0  0  0  0  0  0  0  0  0  0  0  0
   -8.5623   -7.2781    0.0000 C   0  0  0  0  0  0  0  0  0  0  0  0
   -4.6242   -6.7871    0.0000 C   0  0  0  0  0  0  0  0  0  0  0  0
   -3.1570   -7.0990    0.0000 O   0  0  0  0  0  0  0  0  0  0  0  0
   -5.6279   -7.9018    0.0000 O   0  0  0  0  0  0  0  0  0  0  0  0
  2  1  1  1
  2  3  1  0
  3  4  1  0
  4  5  1  0
  4  6  1  0
  2  7  1  0
  7  8  2  0
  7  9  1  0
  9 10  1  0
 10 11  1  6
 11 12  1  0
 12 13  1  0
 12 14  1  0
 10 15  1  0
 15 16  2  0
 15 17  1  0
 17 18  1  0
 18 19  1  0
 19 20  1  0
 20 21  1  0
 21 22  1  6
 22 23  2  0
 22 24  1  0
 24 25  1  0
 25 26  1  0
 26 27  1  0
 26 28  1  0
 24 29  1  0
 29 30  1  0
 30 31  2  0
 30 32  1  0
 32 33  1  0
 33 34  1  6
 34 35  1  0
 35 36  3  0
 33 37  1  0
 37 38  2  0
 37 39  1  0
 21 17  1  0
M  END
$$$$

     RDKit          2D

 39 39  0  0  0  0  0  0  0  0999 V2000
    1.2760    5.1962    0.0000 N   0  0  0  0  0  0  0  0  0  0  0  0
    2.7760    5.1962    0.0000 C   0  0  0  0  0  0  0  0  0  0  0  0
    3.5260    6.4952    0.0000 C   0  0  0  0  0  0  0  0  0  0  0  0
    2.7760    7.7942    0.0000 C   0  0  0  0  0  0  0  0  0  0  0  0
    3.5260    9.0933    0.0000 C   0  0  0  0  0  0  0  0  0  0  0  0
    1.2760    7.7942    0.0000 C   0  0  0  0  0  0  0  0  0  0  0  0
    3.5260    3.8971    0.0000 C   0  0  0  0  0  0  0  0  0  0  0  0
    5.0260    3.8971    0.0000 O   0  0  0  0  0  0  0  0  0  0  0  0
    2.7760    2.5981    0.0000 N   0  0  0  0  0  0  0  0  0  0  0  0
    3.5260    1.2990    0.0000 C   0  0  0  0  0  0  0  0  0  0  0  0
    5.0260    1.2990    0.0000 C   0  0  0  0  0  0  0  0  0  0  0  0
    5.7760    0.0000    0.0000 C   0  0  0  0  0  0  0  0  0  0  0  0
    7.2760    0.0000    0.0000 C   0  0  0  0  0  0  0  0  0  0  0  0
    5.0260   -1.2990    0.0000 C   0  0  0  0  0  0  0  0  0  0  0  0
    2.7760    0.0000    0.0000 C   0  0  0  0  0  0  0  0  0  0  0  0
    3.5260   -1.2990    0.0000 O   0  0  0  0  0  0  0  0  0  0  0  0
    1.2760    0.0000    0.0000 N   0  0  0  0  0  0  0  0  0  0  0  0
    0.3943    1.2135    0.0000 C   0  0  0  0  0  0  0  0  0  0  0  0
   -1.0323    0.7500    0.0000 C   0  0  0  0  0  0  0  0  0  0  0  0
   -1.0323   -0.7500    0.0000 C   0  0  0  0  0  0  0  0  0  0  0  0
    0.3943   -1.2135    0.0000 C   0  0  0  0  0  0  0  0  0  0  0  0
    0.8578   -2.6401    0.0000 C   0  0  0  0  0  0  0  0  0  0  0  0
    2.3250   -2.9520    0.0000 O   0  0  0  0  0  0  0  0  0  0  0  0
   -0.1459   -3.7548    0.0000 N   0  0  0  0  0  0  0  0  0  0  0  0
    0.3177   -5.1814    0.0000 C   0  0  0  0  0  0  0  0  0  0  0  0
    1.7849   -5.4933    0.0000 C   0  0  0  0  0  0  0  0  0  0  0  0
    2.2484   -6.9199    0.0000 C   0  0  0  0  0  0  0  0  0  0  0  0
    2.7886   -4.3786    0.0000 C   0  0  0  0  0  0  0  0  0  0  0  0
   -1.6131   -3.4430    0.0000 C   0  0  0  0  0  0  0  0  0  0  0  0
   -2.6168   -4.5577    0.0000 C   0  0  0  0  0  0  0  0  0  0  0  0
   -2.1533   -5.9843    0.0000 O   0  0  0  0  0  0  0  0  0  0  0  0
   -4.0840   -4.2458    0.0000 N   0  0  0  0  0  0  0  0  0  0  0  0
   -5.0877   -5.3605    0.0000 C   0  0  0  0  0  0  0  0  0  0  0  0
   -6.5549   -5.0487    0.0000 C   0  0  0  0  0  0  0  0  0  0  0  0
   -7.5586   -6.1634    0.0000 C   0  0  0  0  0  0  0  0  0  0  0  0
   -8.5623   -7.2781    0.0000 C   0  0  0  0  0  0  0  0  0  0  0  0
   -4.6242   -6.7871    0.0000 C   0  0  0  0  0  0  0  0  0  0  0  0
   -3.1570   -7.0990    0.0000 O   0  0  0  0  0  0  0  0  0  0  0  0
   -5.6279   -7.9018    0.0000 O   0  0  0  0  0  0  0  0  0  0  0  0
  2  1  1  6
  2  3  1  0
  3  4  1  0
  4  5  1  0
  4  6  1  0
  2  7  1  0
  7  8  2  0
  7  9  1  0
  9 10  1  0
 10 11  1  6
 11 12  1  0
 12 13  1  0
 12 14  1  0
 10 15  1  0
 15 16  2  0
 15 17  1  0
 17 18  1  0
 18 19  1  0
 19 20  1  0
 20 21  1  0
 21 22  1  6
 22 23  2  0
 22 24  1  0
 24 25  1  0
 25 26  1  0
 26 27  1  0
 26 28  1  0
 24 29  1  0
 29 30  1  0
 30 31  2  0
 30 32  1  0
 32 33  1  0
 33 34  1  6
 34 35  1  0
 35 36  3  0
 33 37  1  0
 37 38  2  0
 37 39  1  0
 21 17  1  0
M  END
$$$$

     RDKit          2D

 40 40  0  0  0  0  0  0  0  0999 V2000
    1.2760    5.1962    0.0000 N   0  0  0  0  0  0  0  0  0  0  0  0
    0.5260    6.4952    0.0000 C   0  0  0  0  0  0  0  0  0  0  0  0
    2.7760    5.1962    0.0000 C   0  0  0  0  0  0  0  0  0  0  0  0
    3.5260    6.4952    0.0000 C   0  0  0  0  0  0  0  0  0  0  0  0
    2.7760    7.7942    0.0000 C   0  0  0  0  0  0  0  0  0  0  0  0
    3.5260    9.0933    0.0000 C   0  0  0  0  0  0  0  0  0  0  0  0
    1.2760    7.7942    0.0000 C   0  0  0  0  0  0  0  0  0  0  0  0
    3.5260    3.8971    0.0000 C   0  0  0  0  0  0  0  0  0  0  0  0
    5.0260    3.8971    0.0000 O   0  0  0  0  0  0  0  0  0  0  0  0
    2.7760    2.5981    0.0000 N   0  0  0  0  0  0  0  0  0  0  0  0
    3.5260    1.2990    0.0000 C   0  0  0  0  0  0  0  0  0  0  0  0
    5.0260    1.2990    0.0000 C   0  0  0  0  0  0  0  0  0  0  0  0
    5.7760    0.0000    0.0000 C   0  0  0  0  0  0  0  0  0  0  0  0
    7.2760    0.0000    0.0000 C   0  0  0  0  0  0  0  0  0  0  0  0
    5.0260   -1.2990    0.0000 C   0  0  0  0  0  0  0  0  0  0  0  0
    2.7760    0.0000    0.0000 C   0  0  0  0  0  0  0  0  0  0  0  0
    3.5260   -1.2990    0.0000 O   0  0  0  0  0  0  0  0  0  0  0  0
    1.2760    0.0000    0.0000 N   0  0  0  0  0  0  0  0  0  0  0  0
    0.3943    1.2135    0.0000 C   0  0  0  0  0  0  0  0  0  0  0  0
   -1.0323    0.7500    0.0000 C   0  0  0  0  0  0  0  0  0  0  0  0
   -1.0323   -0.7500    0.0000 C   0  0  0  0  0  0  0  0  0  0  0  0
    0.3943   -1.2135    0.0000 C   0  0  0  0  0  0  0  0  0  0  0  0
    0.8578   -2.6401    0.0000 C   0  0  0  0  0  0  0  0  0  0  0  0
    2.3250   -2.9520    0.0000 O   0  0  0  0  0  0  0  0  0  0  0  0
   -0.1459   -3.7548    0.0000 N   0  0  0  0  0  0  0  0  0  0  0  0
    0.3177   -5.1814    0.0000 C   0  0  0  0  0  0  0  0  0  0  0  0
    1.7849   -5.4933    0.0000 C   0  0  0  0  0  0  0  0  0  0  0  0
    2.2484   -6.9199    0.0000 C   0  0  0  0  0  0  0  0  0  0  0  0
    2.7886   -4.3786    0.0000 C   0  0  0  0  0  0  0  0  0  0  0  0
   -1.6131   -3.4430    0.0000 C   0  0  0  0  0  0  0  0  0  0  0  0
   -2.6168   -4.5577    0.0000 C   0  0  0  0  0  0  0  0  0  0  0  0
   -2.1533   -5.9843    0.0000 O   0  0  0  0  0  0  0  0  0  0  0  0
   -4.0840   -4.2458    0.0000 N   0  0  0  0  0  0  0  0  0  0  0  0
   -5.0877   -5.3605    0.0000 C   0  0  0  0  0  0  0  0  0  0  0  0
   -6.5549   -5.0487    0.0000 C   0  0  0  0  0  0  0  0  0  0  0  0
   -7.5586   -6.1634    0.0000 C   0  0  0  0  0  0  0  0  0  0  0  0
   -8.5623   -7.2781    0.0000 C   0  0  0  0  0  0  0  0  0  0  0  0
   -4.6242   -6.7871    0.0000 C   0  0  0  0  0  0  0  0  0  0  0  0
   -3.1570   -7.0990    0.0000 O   0  0  0  0  0  0  0  0  0  0  0  0
   -5.6279   -7.9018    0.0000 O   0  0  0  0  0  0  0  0  0  0  0  0
  1  2  1  0
  1  3  1  0
  3  4  1  1
  4  5  1  0
  5  6  1  0
  5  7  1  0
  3  8  1  0
  8  9  2  0
  8 10  1  0
 10 11  1  0
 11 12  1  6
 12 13  1  0
 13 14  1  0
 13 15  1  0
 11 16  1  0
 16 17  2  0
 16 18  1  0
 18 19  1  0
 19 20  1  0
 20 21  1  0
 21 22  1  0
 22 23  1  6
 23 24  2  0
 23 25  1  0
 25 26  1  0
 26 27  1  0
 27 28  1  0
 27 29  1  0
 25 30  1  0
 30 31  1  0
 31 32  2  0
 31 33  1  0
 33 34  1  0
 34 35  1  6
 35 36  1  0
 36 37  3  0
 34 38  1  0
 38 39  2  0
 38 40  1  0
 22 18  1  0
M  END
$$$$

     RDKit          2D

 40 40  0  0  0  0  0  0  0  0999 V2000
    1.2760    5.1962    0.0000 N   0  0  0  0  0  0  0  0  0  0  0  0
    0.5260    6.4952    0.0000 C   0  0  0  0  0  0  0  0  0  0  0  0
    2.7760    5.1962    0.0000 C   0  0  0  0  0  0  0  0  0  0  0  0
    3.5260    6.4952    0.0000 C   0  0  0  0  0  0  0  0  0  0  0  0
    2.7760    7.7942    0.0000 C   0  0  0  0  0  0  0  0  0  0  0  0
    3.5260    9.0933    0.0000 C   0  0  0  0  0  0  0  0  0  0  0  0
    1.2760    7.7942    0.0000 C   0  0  0  0  0  0  0  0  0  0  0  0
    3.5260    3.8971    0.0000 C   0  0  0  0  0  0  0  0  0  0  0  0
    5.0260    3.8971    0.0000 O   0  0  0  0  0  0  0  0  0  0  0  0
    2.7760    2.5981    0.0000 N   0  0  0  0  0  0  0  0  0  0  0  0
    3.5260    1.2990    0.0000 C   0  0  0  0  0  0  0  0  0  0  0  0
    5.0260    1.2990    0.0000 C   0  0  0  0  0  0  0  0  0  0  0  0
    5.7760    0.0000    0.0000 C   0  0  0  0  0  0  0  0  0  0  0  0
    7.2760    0.0000    0.0000 C   0  0  0  0  0  0  0  0  0  0  0  0
    5.0260   -1.2990    0.0000 C   0  0  0  0  0  0  0  0  0  0  0  0
    2.7760    0.0000    0.0000 C   0  0  0  0  0  0  0  0  0  0  0  0
    3.5260   -1.2990    0.0000 O   0  0  0  0  0  0  0  0  0  0  0  0
    1.2760    0.0000    0.0000 N   0  0  0  0  0  0  0  0  0  0  0  0
    0.3943    1.2135    0.0000 C   0  0  0  0  0  0  0  0  0  0  0  0
   -1.0323    0.7500    0.0000 C   0  0  0  0  0  0  0  0  0  0  0  0
   -1.0323   -0.7500    0.0000 C   0  0  0  0  0  0  0  0  0  0  0  0
    0.3943   -1.2135    0.0000 C   0  0  0  0  0  0  0  0  0  0  0  0
    0.8578   -2.6401    0.0000 C   0  0  0  0  0  0  0  0  0  0  0  0
    2.3250   -2.9520    0.0000 O   0  0  0  0  0  0  0  0  0  0  0  0
   -0.1459   -3.7548    0.0000 N   0  0  0  0  0  0  0  0  0  0  0  0
    0.3177   -5.1814    0.0000 C   0  0  0  0  0  0  0  0  0  0  0  0
    1.7849   -5.4933    0.0000 C   0  0  0  0  0  0  0  0  0  0  0  0
    2.2484   -6.9199    0.0000 C   0  0  0  0  0  0  0  0  0  0  0  0
    2.7886   -4.3786    0.0000 C   0  0  0  0  0  0  0  0  0  0  0  0
   -1.6131   -3.4430    0.0000 C   0  0  0  0  0  0  0  0  0  0  0  0
   -2.6168   -4.5577    0.0000 C   0  0  0  0  0  0  0  0  0  0  0  0
   -2.1533   -5.9843    0.0000 O   0  0  0  0  0  0  0  0  0  0  0  0
   -4.0840   -4.2458    0.0000 N   0  0  0  0  0  0  0  0  0  0  0  0
   -5.0877   -5.3605    0.0000 C   0  0  0  0  0  0  0  0  0  0  0  0
   -6.5549   -5.0487    0.0000 C   0  0  0  0  0  0  0  0  0  0  0  0
   -7.5586   -6.1634    0.0000 C   0  0  0  0  0  0  0  0  0  0  0  0
   -8.5623   -7.2781    0.0000 C   0  0  0  0  0  0  0  0  0  0  0  0
   -4.6242   -6.7871    0.0000 C   0  0  0  0  0  0  0  0  0  0  0  0
   -3.1570   -7.0990    0.0000 O   0  0  0  0  0  0  0  0  0  0  0  0
   -5.6279   -7.9018    0.0000 O   0  0  0  0  0  0  0  0  0  0  0  0
  1  2  1  0
  1  3  1  0
  3  4  1  6
  4  5  1  0
  5  6  1  0
  5  7  1  0
  3  8  1  0
  8  9  2  0
  8 10  1  0
 10 11  1  0
 11 12  1  6
 12 13  1  0
 13 14  1  0
 13 15  1  0
 11 16  1  0
 16 17  2  0
 16 18  1  0
 18 19  1  0
 19 20  1  0
 20 21  1  0
 21 22  1  0
 22 23  1  6
 23 24  2  0
 23 25  1  0
 25 26  1  0
 26 27  1  0
 27 28  1  0
 27 29  1  0
 25 30  1  0
 30 31  1  0
 31 32  2  0
 31 33  1  0
 33 34  1  0
 34 35  1  6
 35 36  1  0
 36 37  3  0
 34 38  1  0
 38 39  2  0
 38 40  1  0
 22 18  1  0
M  END
$$$$

     RDKit          2D

 40 40  0  0  0  0  0  0  0  0999 V2000
    8.0260    1.2990    0.0000 N   0  0  0  0  0  0  0  0  0  0  0  0
    7.2760    0.0000    0.0000 C   0  0  0  0  0  0  0  0  0  0  0  0
    8.0260   -1.2990    0.0000 C   0  0  0  0  0  0  0  0  0  0  0  0
    9.5260   -1.2990    0.0000 C   0  0  0  0  0  0  0  0  0  0  0  0
   10.2760   -2.5981    0.0000 C   0  0  0  0  0  0  0  0  0  0  0  0
   10.2760    0.0000    0.0000 C   0  0  0  0  0  0  0  0  0  0  0  0
    5.7760    0.0000    0.0000 C   0  0  0  0  0  0  0  0  0  0  0  0
    5.0260   -1.2990    0.0000 O   0  0  0  0  0  0  0  0  0  0  0  0
    5.0260    1.2990    0.0000 N   0  0  0  0  0  0  0  0  0  0  0  0
    5.7760    2.5981    0.0000 C   0  0  0  0  0  0  0  0  0  0  0  0
    3.5260    1.2990    0.0000 C   0  0  0  0  0  0  0  0  0  0  0  0
    2.7760    2.5981    0.0000 C   0  0  0  0  0  0  0  0  0  0  0  0
    3.5260    3.8971    0.0000 C   0  0  0  0  0  0  0  0  0  0  0  0
    2.7760    5.1962    0.0000 C   0  0  0  0  0  0  0  0  0  0  0  0
    5.0260    3.8971    0.0000 C   0  0  0  0  0  0  0  0  0  0  0  0
    2.7760    0.0000    0.0000 C   0  0  0  0  0  0  0  0  0  0  0  0
    3.5260   -1.2990    0.0000 O   0  0  0  0  0  0  0  0  0  0  0  0
    1.2760    0.0000    0.0000 N   0  0  0  0  0  0  0  0  0  0  0  0
    0.3943    1.2135    0.0000 C   0  0  0  0  0  0  0  0  0  0  0  0
   -1.0323    0.7500    0.0000 C   0  0  0  0  0  0  0  0  0  0  0  0
   -1.0323   -0.7500    0.0000 C   0  0  0  0  0  0  0  0  0  0  0  0
    0.3943   -1.2135    0.0000 C   0  0  0  0  0  0  0  0  0  0  0  0
    0.8578   -2.6401    0.0000 C   0  0  0  0  0  0  0  0  0  0  0  0
    2.3250   -2.9520    0.0000 O   0  0  0  0  0  0  0  0  0  0  0  0
   -0.1459   -3.7548    0.0000 N   0  0  0  0  0  0  0  0  0  0  0  0
    0.3177   -5.1814    0.0000 C   0  0  0  0  0  0  0  0  0  0  0  0
    1.7849   -5.4933    0.0000 C   0  0  0  0  0  0  0  0  0  0  0  0
    2.2484   -6.9199    0.0000 C   0  0  0  0  0  0  0  0  0  0  0  0
    2.7886   -4.3786    0.0000 C   0  0  0  0  0  0  0  0  0  0  0  0
   -1.6131   -3.4430    0.0000 C   0  0  0  0  0  0  0  0  0  0  0  0
   -2.6168   -4.5577    0.0000 C   0  0  0  0  0  0  0  0  0  0  0  0
   -2.1533   -5.9843    0.0000 O   0  0  0  0  0  0  0  0  0  0  0  0
   -4.0840   -4.2458    0.0000 N   0  0  0  0  0  0  0  0  0  0  0  0
   -5.0877   -5.3605    0.0000 C   0  0  0  0  0  0  0  0  0  0  0  0
   -6.5549   -5.0487    0.0000 C   0  0  0  0  0  0  0  0  0  0  0  0
   -7.5586   -6.1634    0.0000 C   0  0  0  0  0  0  0  0  0  0  0  0
   -8.5623   -7.2781    0.0000 C   0  0  0  0  0  0  0  0  0  0  0  0
   -4.6242   -6.7871    0.0000 C   0  0  0  0  0  0  0  0  0  0  0  0
   -3.1570   -7.0990    0.0000 O   0  0  0  0  0  0  0  0  0  0  0  0
   -5.6279   -7.9018    0.0000 O   0  0  0  0  0  0  0  0  0  0  0  0
  2  1  1  1
  2  3  1  0
  3  4  1  0
  4  5  1  0
  4  6  1  0
  2  7  1  0
  7  8  2  0
  7  9  1  0
  9 10  1  0
  9 11  1  0
 11 12  1  6
 12 13  1  0
 13 14  1  0
 13 15  1  0
 11 16  1  0
 16 17  2  0
 16 18  1  0
 18 19  1  0
 19 20  1  0
 20 21  1  0
 21 22  1  0
 22 23  1  6
 23 24  2  0
 23 25  1  0
 25 26  1  0
 26 27  1  0
 27 28  1  0
 27 29  1  0
 25 30  1  0
 30 31  1  0
 31 32  2  0
 31 33  1  0
 33 34  1  0
 34 35  1  6
 35 36  1  0
 36 37  3  0
 34 38  1  0
 38 39  2  0
 38 40  1  0
 22 18  1  0
M  END
$$$$

     RDKit          2D

 40 40  0  0  0  0  0  0  0  0999 V2000
    8.0260    1.2990    0.0000 N   0  0  0  0  0  0  0  0  0  0  0  0
    7.2760    0.0000    0.0000 C   0  0  0  0  0  0  0  0  0  0  0  0
    8.0260   -1.2990    0.0000 C   0  0  0  0  0  0  0  0  0  0  0  0
    9.5260   -1.2990    0.0000 C   0  0  0  0  0  0  0  0  0  0  0  0
   10.2760   -2.5981    0.0000 C   0  0  0  0  0  0  0  0  0  0  0  0
   10.2760    0.0000    0.0000 C   0  0  0  0  0  0  0  0  0  0  0  0
    5.7760    0.0000    0.0000 C   0  0  0  0  0  0  0  0  0  0  0  0
    5.0260   -1.2990    0.0000 O   0  0  0  0  0  0  0  0  0  0  0  0
    5.0260    1.2990    0.0000 N   0  0  0  0  0  0  0  0  0  0  0  0
    5.7760    2.5981    0.0000 C   0  0  0  0  0  0  0  0  0  0  0  0
    3.5260    1.2990    0.0000 C   0  0  0  0  0  0  0  0  0  0  0  0
    2.7760    2.5981    0.0000 C   0  0  0  0  0  0  0  0  0  0  0  0
    3.5260    3.8971    0.0000 C   0  0  0  0  0  0  0  0  0  0  0  0
    2.7760    5.1962    0.0000 C   0  0  0  0  0  0  0  0  0  0  0  0
    5.0260    3.8971    0.0000 C   0  0  0  0  0  0  0  0  0  0  0  0
    2.7760    0.0000    0.0000 C   0  0  0  0  0  0  0  0  0  0  0  0
    3.5260   -1.2990    0.0000 O   0  0  0  0  0  0  0  0  0  0  0  0
    1.2760    0.0000    0.0000 N   0  0  0  0  0  0  0  0  0  0  0  0
    0.3943    1.2135    0.0000 C   0  0  0  0  0  0  0  0  0  0  0  0
   -1.0323    0.7500    0.0000 C   0  0  0  0  0  0  0  0  0  0  0  0
   -1.0323   -0.7500    0.0000 C   0  0  0  0  0  0  0  0  0  0  0  0
    0.3943   -1.2135    0.0000 C   0  0  0  0  0  0  0  0  0  0  0  0
    0.8578   -2.6401    0.0000 C   0  0  0  0  0  0  0  0  0  0  0  0
    2.3250   -2.9520    0.0000 O   0  0  0  0  0  0  0  0  0  0  0  0
   -0.1459   -3.7548    0.0000 N   0  0  0  0  0  0  0  0  0  0  0  0
    0.3177   -5.1814    0.0000 C   0  0  0  0  0  0  0  0  0  0  0  0
    1.7849   -5.4933    0.0000 C   0  0  0  0  0  0  0  0  0  0  0  0
    2.2484   -6.9199    0.0000 C   0  0  0  0  0  0  0  0  0  0  0  0
    2.7886   -4.3786    0.0000 C   0  0  0  0  0  0  0  0  0  0  0  0
   -1.6131   -3.4430    0.0000 C   0  0  0  0  0  0  0  0  0  0  0  0
   -2.6168   -4.5577    0.0000 C   0  0  0  0  0  0  0  0  0  0  0  0
   -2.1533   -5.9843    0.0000 O   0  0  0  0  0  0  0  0  0  0  0  0
   -4.0840   -4.2458    0.0000 N   0  0  0  0  0  0  0  0  0  0  0  0
   -5.0877   -5.3605    0.0000 C   0  0  0  0  0  0  0  0  0  0  0  0
   -6.5549   -5.0487    0.0000 C   0  0  0  0  0  0  0  0  0  0  0  0
   -7.5586   -6.1634    0.0000 C   0  0  0  0  0  0  0  0  0  0  0  0
   -8.5623   -7.2781    0.0000 C   0  0  0  0  0  0  0  0  0  0  0  0
   -4.6242   -6.7871    0.0000 C   0  0  0  0  0  0  0  0  0  0  0  0
   -3.1570   -7.0990    0.0000 O   0  0  0  0  0  0  0  0  0  0  0  0
   -5.6279   -7.9018    0.0000 O   0  0  0  0  0  0  0  0  0  0  0  0
  2  1  1  6
  2  3  1  0
  3  4  1  0
  4  5  1  0
  4  6  1  0
  2  7  1  0
  7  8  2  0
  7  9  1  0
  9 10  1  0
  9 11  1  0
 11 12  1  6
 12 13  1  0
 13 14  1  0
 13 15  1  0
 11 16  1  0
 16 17  2  0
 16 18  1  0
 18 19  1  0
 19 20  1  0
 20 21  1  0
 21 22  1  0
 22 23  1  6
 23 24  2  0
 23 25  1  0
 25 26  1  0
 26 27  1  0
 27 28  1  0
 27 29  1  0
 25 30  1  0
 30 31  1  0
 31 32  2  0
 31 33  1  0
 33 34  1  0
 34 35  1  6
 35 36  1  0
 36 37  3  0
 34 38  1  0
 38 39  2  0
 38 40  1  0
 22 18  1  0
M  END
$$$$

     RDKit          2D

 27 26  0  0  0  0  0  0  0  0999 V2000
    3.8971    2.2500    0.0000 N   0  0  0  0  0  0  0  0  0  0  0  0
    2.5981    3.0000    0.0000 C   0  0  0  0  0  0  0  0  0  0  0  0
    1.2990    2.2500    0.0000 C   0  0  0  0  0  0  0  0  0  0  0  0
    1.2990    0.7500    0.0000 C   0  0  0  0  0  0  0  0  0  0  0  0
    0.0000    0.0000    0.0000 C   0  0  0  0  0  0  0  0  0  0  0  0
    2.5981   -0.0000    0.0000 C   0  0  0  0  0  0  0  0  0  0  0  0
    2.5981    4.5000    0.0000 C   0  0  0  0  0  0  0  0  0  0  0  0
    1.2990    5.2500    0.0000 O   0  0  0  0  0  0  0  0  0  0  0  0
    3.8971    5.2500    0.0000 N   0  0  0  0  0  0  0  0  0  0  0  0
    3.8971    6.7500    0.0000 C   0  0  0  0  0  0  0  0  0  0  0  0
    5.1962    7.5000    0.0000 C   0  0  0  0  0  0  0  0  0  0  0  0
    5.1962    9.0000    0.0000 C   0  0  0  0  0  0  0  0  0  0  0  0
    6.4952    9.7500    0.0000 O   0  0  0  0  0  0  0  0  0  0  0  0
    6.4952   11.2500    0.0000 C   0  0  0  0  0  0  0  0  0  0  0  0
    7.7942   12.0000    0.0000 C   0  0  0  0  0  0  0  0  0  0  0  0
    5.1962   12.0000    0.0000 C   0  0  0  0  0  0  0  0  0  0  0  0
    5.1962    4.5000    0.0000 C   0  0  0  0  0  0  0  0  0  0  0  0
    6.4952    5.2500    0.0000 C   0  0  0  0  0  0  0  0  0  0  0  0
    6.4952    6.7500    0.0000 O   0  0  0  0  0  0  0  0  0  0  0  0
    7.7942    4.5000    0.0000 N   0  0  0  0  0  0  0  0  0  0  0  0
    9.0933    5.2500    0.0000 C   0  0  0  0  0  0  0  0  0  0  0  0
   10.3923    4.5000    0.0000 C   0  0  0  0  0  0  0  0  0  0  0  0
   11.6913    5.2500    0.0000 C   0  0  0  0  0  0  0  0  0  0  0  0
   12.9904    6.0000    0.0000 C   0  0  0  0  0  0  0  0  0  0  0  0
    9.0933    6.7500    0.0000 C   0  0  0  0  0  0  0  0  0  0  0  0
    7.7942    7.5000    0.0000 O   0  0  0  0  0  0  0  0  0  0  0  0
   10.3923    7.5000    0.0000 O   0  0  0  0  0  0  0  0  0  0  0  0
  2  1  1  1
  2  3  1  0
  3  4  1  0
  4  5  1  0
  4  6  1  0
  2  7  1  0
  7  8  2  0
  7  9  1  0
  9 10  1  0
 10 11  1  0
 11 12  1  0
 12 13  1  0
 13 14  1  0
 14 15  1  0
 14 16  1  0
  9 17  1  0
 17 18  1  0
 18 19  2  0
 18 20  1  0
 20 21  1  0
 21 22  1  6
 22 23  1  0
 23 24  3  0
 21 25  1  0
 25 26  2  0
 25 27  1  0
M  END
$$$$

     RDKit          2D

 27 26  0  0  0  0  0  0  0  0999 V2000
    3.8971    2.2500    0.0000 N   0  0  0  0  0  0  0  0  0  0  0  0
    2.5981    3.0000    0.0000 C   0  0  0  0  0  0  0  0  0  0  0  0
    1.2990    2.2500    0.0000 C   0  0  0  0  0  0  0  0  0  0  0  0
    1.2990    0.7500    0.0000 C   0  0  0  0  0  0  0  0  0  0  0  0
    0.0000    0.0000    0.0000 C   0  0  0  0  0  0  0  0  0  0  0  0
    2.5981   -0.0000    0.0000 C   0  0  0  0  0  0  0  0  0  0  0  0
    2.5981    4.5000    0.0000 C   0  0  0  0  0  0  0  0  0  0  0  0
    1.2990    5.2500    0.0000 O   0  0  0  0  0  0  0  0  0  0  0  0
    3.8971    5.2500    0.0000 N   0  0  0  0  0  0  0  0  0  0  0  0
    3.8971    6.7500    0.0000 C   0  0  0  0  0  0  0  0  0  0  0  0
    5.1962    7.5000    0.0000 C   0  0  0  0  0  0  0  0  0  0  0  0
    5.1962    9.0000    0.0000 C   0  0  0  0  0  0  0  0  0  0  0  0
    6.4952    9.7500    0.0000 O   0  0  0  0  0  0  0  0  0  0  0  0
    6.4952   11.2500    0.0000 C   0  0  0  0  0  0  0  0  0  0  0  0
    7.7942   12.0000    0.0000 C   0  0  0  0  0  0  0  0  0  0  0  0
    5.1962   12.0000    0.0000 C   0  0  0  0  0  0  0  0  0  0  0  0
    5.1962    4.5000    0.0000 C   0  0  0  0  0  0  0  0  0  0  0  0
    6.4952    5.2500    0.0000 C   0  0  0  0  0  0  0  0  0  0  0  0
    6.4952    6.7500    0.0000 O   0  0  0  0  0  0  0  0  0  0  0  0
    7.7942    4.5000    0.0000 N   0  0  0  0  0  0  0  0  0  0  0  0
    9.0933    5.2500    0.0000 C   0  0  0  0  0  0  0  0  0  0  0  0
   10.3923    4.5000    0.0000 C   0  0  0  0  0  0  0  0  0  0  0  0
   11.6913    5.2500    0.0000 C   0  0  0  0  0  0  0  0  0  0  0  0
   12.9904    6.0000    0.0000 C   0  0  0  0  0  0  0  0  0  0  0  0
    9.0933    6.7500    0.0000 C   0  0  0  0  0  0  0  0  0  0  0  0
    7.7942    7.5000    0.0000 O   0  0  0  0  0  0  0  0  0  0  0  0
   10.3923    7.5000    0.0000 O   0  0  0  0  0  0  0  0  0  0  0  0
  2  1  1  6
  2  3  1  0
  3  4  1  0
  4  5  1  0
  4  6  1  0
  2  7  1  0
  7  8  2  0
  7  9  1  0
  9 10  1  0
 10 11  1  0
 11 12  1  0
 12 13  1  0
 13 14  1  0
 14 15  1  0
 14 16  1  0
  9 17  1  0
 17 18  1  0
 18 19  2  0
 18 20  1  0
 20 21  1  0
 21 22  1  6
 22 23  1  0
 23 24  3  0
 21 25  1  0
 25 26  2  0
 25 27  1  0
M  END
$$$$

     RDKit          2D

 26 25  0  0  0  0  0  0  0  0999 V2000
    0.0000    3.0000    0.0000 N   0  0  0  0  0  0  0  0  0  0  0  0
    1.2990    2.2500    0.0000 C   0  0  0  0  0  0  0  0  0  0  0  0
    1.2990    0.7500    0.0000 C   0  0  0  0  0  0  0  0  0  0  0  0
    0.0000    0.0000    0.0000 C   0  0  0  0  0  0  0  0  0  0  0  0
    2.5981   -0.0000    0.0000 C   0  0  0  0  0  0  0  0  0  0  0  0
    2.5981    3.0000    0.0000 C   0  0  0  0  0  0  0  0  0  0  0  0
    3.8971    2.2500    0.0000 O   0  0  0  0  0  0  0  0  0  0  0  0
    2.5981    4.5000    0.0000 N   0  0  0  0  0  0  0  0  0  0  0  0
    3.8971    5.2500    0.0000 C   0  0  0  0  0  0  0  0  0  0  0  0
    3.8971    6.7500    0.0000 C   0  0  0  0  0  0  0  0  0  0  0  0
    5.1962    7.5000    0.0000 C   0  0  0  0  0  0  0  0  0  0  0  0
    5.1962    9.0000    0.0000 O   0  0  0  0  0  0  0  0  0  0  0  0
    6.4952    9.7500    0.0000 C   0  0  0  0  0  0  0  0  0  0  0  0
    6.4952   11.2500    0.0000 C   0  0  0  0  0  0  0  0  0  0  0  0
    7.7942    9.0000    0.0000 C   0  0  0  0  0  0  0  0  0  0  0  0
    1.2990    5.2500    0.0000 C   0  0  0  0  0  0  0  0  0  0  0  0
    1.2990    6.7500    0.0000 C   0  0  0  0  0  0  0  0  0  0  0  0
    2.5981    7.5000    0.0000 O   0  0  0  0  0  0  0  0  0  0  0  0
    0.0000    7.5000    0.0000 N   0  0  0  0  0  0  0  0  0  0  0  0
    0.0000    9.0000    0.0000 C   0  0  0  0  0  0  0  0  0  0  0  0
   -1.2990    9.7500    0.0000 C   0  0  0  0  0  0  0  0  0  0  0  0
   -1.2990   11.2500    0.0000 C   0  0  0  0  0  0  0  0  0  0  0  0
   -1.2990   12.7500    0.0000 C   0  0  0  0  0  0  0  0  0  0  0  0
    1.2990    9.7500    0.0000 C   0  0  0  0  0  0  0  0  0  0  0  0
    2.5981    9.0000    0.0000 O   0  0  0  0  0  0  0  0  0  0  0  0
    1.2990   11.2500    0.0000 O   0  0  0  0  0  0  0  0  0  0  0  0
  2  1  1  6
  2  3  1  0
  3  4  1  0
  3  5  1  0
  2  6  1  0
  6  7  2  0
  6  8  1  0
  8  9  1  0
  9 10  1  0
 10 11  1  0
 11 12  1  0
 12 13  1  0
 13 14  1  0
 13 15  1  0
  8 16  1  0
 16 17  1  0
 17 18  2  0
 17 19  1  0
 19 20  1  0
 20 21  1  1
 21 22  1  0
 22 23  3  0
 20 24  1  0
 24 25  2  0
 24 26  1  0
M  END
$$$$

     RDKit          2D

 26 25  0  0  0  0  0  0  0  0999 V2000
    0.0000    3.0000    0.0000 N   0  0  0  0  0  0  0  0  0  0  0  0
    1.2990    2.2500    0.0000 C   0  0  0  0  0  0  0  0  0  0  0  0
    1.2990    0.7500    0.0000 C   0  0  0  0  0  0  0  0  0  0  0  0
    0.0000    0.0000    0.0000 C   0  0  0  0  0  0  0  0  0  0  0  0
    2.5981   -0.0000    0.0000 C   0  0  0  0  0  0  0  0  0  0  0  0
    2.5981    3.0000    0.0000 C   0  0  0  0  0  0  0  0  0  0  0  0
    3.8971    2.2500    0.0000 O   0  0  0  0  0  0  0  0  0  0  0  0
    2.5981    4.5000    0.0000 N   0  0  0  0  0  0  0  0  0  0  0  0
    3.8971    5.2500    0.0000 C   0  0  0  0  0  0  0  0  0  0  0  0
    3.8971    6.7500    0.0000 C   0  0  0  0  0  0  0  0  0  0  0  0
    5.1962    7.5000    0.0000 C   0  0  0  0  0  0  0  0  0  0  0  0
    5.1962    9.0000    0.0000 O   0  0  0  0  0  0  0  0  0  0  0  0
    6.4952    9.7500    0.0000 C   0  0  0  0  0  0  0  0  0  0  0  0
    6.4952   11.2500    0.0000 C   0  0  0  0  0  0  0  0  0  0  0  0
    7.7942    9.0000    0.0000 C   0  0  0  0  0  0  0  0  0  0  0  0
    1.2990    5.2500    0.0000 C   0  0  0  0  0  0  0  0  0  0  0  0
    1.2990    6.7500    0.0000 C   0  0  0  0  0  0  0  0  0  0  0  0
    2.5981    7.5000    0.0000 O   0  0  0  0  0  0  0  0  0  0  0  0
    0.0000    7.5000    0.0000 N   0  0  0  0  0  0  0  0  0  0  0  0
    0.0000    9.0000    0.0000 C   0  0  0  0  0  0  0  0  0  0  0  0
   -1.2990    9.7500    0.0000 C   0  0  0  0  0  0  0  0  0  0  0  0
   -1.2990   11.2500    0.0000 C   0  0  0  0  0  0  0  0  0  0  0  0
   -1.2990   12.7500    0.0000 C   0  0  0  0  0  0  0  0  0  0  0  0
    1.2990    9.7500    0.0000 C   0  0  0  0  0  0  0  0  0  0  0  0
    2.5981    9.0000    0.0000 O   0  0  0  0  0  0  0  0  0  0  0  0
    1.2990   11.2500    0.0000 O   0  0  0  0  0  0  0  0  0  0  0  0
  2  1  1  1
  2  3  1  0
  3  4  1  0
  3  5  1  0
  2  6  1  0
  6  7  2  0
  6  8  1  0
  8  9  1  0
  9 10  1  0
 10 11  1  0
 11 12  1  0
 12 13  1  0
 13 14  1  0
 13 15  1  0
  8 16  1  0
 16 17  1  0
 17 18  2  0
 17 19  1  0
 19 20  1  0
 20 21  1  1
 21 22  1  0
 22 23  3  0
 20 24  1  0
 24 25  2  0
 24 26  1  0
M  END
$$$$

     RDKit          2D

 28 27  0  0  0  0  0  0  0  0999 V2000
    3.8971    0.7500    0.0000 N   0  0  0  0  0  0  0  0  0  0  0  0
    5.1962    0.0000    0.0000 C   0  0  0  0  0  0  0  0  0  0  0  0
    2.5981   -0.0000    0.0000 C   0  0  0  0  0  0  0  0  0  0  0  0
    1.2990    0.7500    0.0000 C   0  0  0  0  0  0  0  0  0  0  0  0
   -0.0000   -0.0000    0.0000 C   0  0  0  0  0  0  0  0  0  0  0  0
   -1.2990    0.7500    0.0000 C   0  0  0  0  0  0  0  0  0  0  0  0
   -0.0000   -1.5000    0.0000 C   0  0  0  0  0  0  0  0  0  0  0  0
    2.5981   -1.5000    0.0000 C   0  0  0  0  0  0  0  0  0  0  0  0
    1.2990   -2.2500    0.0000 O   0  0  0  0  0  0  0  0  0  0  0  0
    3.8971   -2.2500    0.0000 N   0  0  0  0  0  0  0  0  0  0  0  0
    3.8971   -3.7500    0.0000 C   0  0  0  0  0  0  0  0  0  0  0  0
    5.1962   -4.5000    0.0000 C   0  0  0  0  0  0  0  0  0  0  0  0
    5.1962   -6.0000    0.0000 C   0  0  0  0  0  0  0  0  0  0  0  0
    6.4952   -6.7500    0.0000 O   0  0  0  0  0  0  0  0  0  0  0  0
    6.4952   -8.2500    0.0000 C   0  0  0  0  0  0  0  0  0  0  0  0
    7.7942   -9.0000    0.0000 C   0  0  0  0  0  0  0  0  0  0  0  0
    5.1962   -9.0000    0.0000 C   0  0  0  0  0  0  0  0  0  0  0  0
    5.1962   -1.5000    0.0000 C   0  0  0  0  0  0  0  0  0  0  0  0
    6.4952   -2.2500    0.0000 C   0  0  0  0  0  0  0  0  0  0  0  0
    6.4952   -3.7500    0.0000 O   0  0  0  0  0  0  0  0  0  0  0  0
    7.7942   -1.5000    0.0000 N   0  0  0  0  0  0  0  0  0  0  0  0
    9.0933   -2.2500    0.0000 C   0  0  0  0  0  0  0  0  0  0  0  0
   10.3923   -1.5000    0.0000 C   0  0  0  0  0  0  0  0  0  0  0  0
   11.6913   -2.2500    0.0000 C   0  0  0  0  0  0  0  0  0  0  0  0
   12.9904   -3.0000    0.0000 C   0  0  0  0  0  0  0  0  0  0  0  0
    9.0933   -3.7500    0.0000 C   0  0  0  0  0  0  0  0  0  0  0  0
    7.7942   -4.5000    0.0000 O   0  0  0  0  0  0  0  0  0  0  0  0
   10.3923   -4.5000    0.0000 O   0  0  0  0  0  0  0  0  0  0  0  0
  1  2  1  0
  1  3  1  0
  3  4  1  6
  4  5  1  0
  5  6  1  0
  5  7  1  0
  3  8  1  0
  8  9  2  0
  8 10  1  0
 10 11  1  0
 11 12  1  0
 12 13  1  0
 13 14  1  0
 14 15  1  0
 15 16  1  0
 15 17  1  0
 10 18  1  0
 18 19  1  0
 19 20  2  0
 19 21  1  0
 21 22  1  0
 22 23  1  1
 23 24  1  0
 24 25  3  0
 22 26  1  0
 26 27  2  0
 26 28  1  0
M  END
$$$$

     RDKit          2D

 28 27  0  0  0  0  0  0  0  0999 V2000
    3.8971    0.7500    0.0000 N   0  0  0  0  0  0  0  0  0  0  0  0
    5.1962    0.0000    0.0000 C   0  0  0  0  0  0  0  0  0  0  0  0
    2.5981   -0.0000    0.0000 C   0  0  0  0  0  0  0  0  0  0  0  0
    1.2990    0.7500    0.0000 C   0  0  0  0  0  0  0  0  0  0  0  0
   -0.0000   -0.0000    0.0000 C   0  0  0  0  0  0  0  0  0  0  0  0
   -1.2990    0.7500    0.0000 C   0  0  0  0  0  0  0  0  0  0  0  0
   -0.0000   -1.5000    0.0000 C   0  0  0  0  0  0  0  0  0  0  0  0
    2.5981   -1.5000    0.0000 C   0  0  0  0  0  0  0  0  0  0  0  0
    1.2990   -2.2500    0.0000 O   0  0  0  0  0  0  0  0  0  0  0  0
    3.8971   -2.2500    0.0000 N   0  0  0  0  0  0  0  0  0  0  0  0
    3.8971   -3.7500    0.0000 C   0  0  0  0  0  0  0  0  0  0  0  0
    5.1962   -4.5000    0.0000 C   0  0  0  0  0  0  0  0  0  0  0  0
    5.1962   -6.0000    0.0000 C   0  0  0  0  0  0  0  0  0  0  0  0
    6.4952   -6.7500    0.0000 O   0  0  0  0  0  0  0  0  0  0  0  0
    6.4952   -8.2500    0.0000 C   0  0  0  0  0  0  0  0  0  0  0  0
    7.7942   -9.0000    0.0000 C   0  0  0  0  0  0  0  0  0  0  0  0
    5.1962   -9.0000    0.0000 C   0  0  0  0  0  0  0  0  0  0  0  0
    5.1962   -1.5000    0.0000 C   0  0  0  0  0  0  0  0  0  0  0  0
    6.4952   -2.2500    0.0000 C   0  0  0  0  0  0  0  0  0  0  0  0
    6.4952   -3.7500    0.0000 O   0  0  0  0  0  0  0  0  0  0  0  0
    7.7942   -1.5000    0.0000 N   0  0  0  0  0  0  0  0  0  0  0  0
    9.0933   -2.2500    0.0000 C   0  0  0  0  0  0  0  0  0  0  0  0
   10.3923   -1.5000    0.0000 C   0  0  0  0  0  0  0  0  0  0  0  0
   11.6913   -2.2500    0.0000 C   0  0  0  0  0  0  0  0  0  0  0  0
   12.9904   -3.0000    0.0000 C   0  0  0  0  0  0  0  0  0  0  0  0
    9.0933   -3.7500    0.0000 C   0  0  0  0  0  0  0  0  0  0  0  0
    7.7942   -4.5000    0.0000 O   0  0  0  0  0  0  0  0  0  0  0  0
   10.3923   -4.5000    0.0000 O   0  0  0  0  0  0  0  0  0  0  0  0
  1  2  1  0
  1  3  1  0
  3  4  1  1
  4  5  1  0
  5  6  1  0
  5  7  1  0
  3  8  1  0
  8  9  2  0
  8 10  1  0
 10 11  1  0
 11 12  1  0
 12 13  1  0
 13 14  1  0
 14 15  1  0
 15 16  1  0
 15 17  1  0
 10 18  1  0
 18 19  1  0
 19 20  2  0
 19 21  1  0
 21 22  1  0
 22 23  1  1
 23 24  1  0
 24 25  3  0
 22 26  1  0
 26 27  2  0
 26 28  1  0
M  END
$$$$

     RDKit          2D

 30 30  0  0  0  0  0  0  0  0999 V2000
    3.0000   -2.5981    0.0000 N   0  0  0  0  0  0  0  0  0  0  0  0
    3.7500   -1.2990    0.0000 C   0  0  0  0  0  0  0  0  0  0  0  0
    3.0000    0.0000    0.0000 C   0  0  0  0  0  0  0  0  0  0  0  0
    1.5000    0.0000    0.0000 C   0  0  0  0  0  0  0  0  0  0  0  0
    0.7500   -1.2990    0.0000 C   0  0  0  0  0  0  0  0  0  0  0  0
   -0.7500   -1.2990    0.0000 C   0  0  0  0  0  0  0  0  0  0  0  0
   -1.5000    0.0000    0.0000 C   0  0  0  0  0  0  0  0  0  0  0  0
   -0.7500    1.2990    0.0000 C   0  0  0  0  0  0  0  0  0  0  0  0
    0.7500    1.2990    0.0000 C   0  0  0  0  0  0  0  0  0  0  0  0
    5.2500   -1.2990    0.0000 C   0  0  0  0  0  0  0  0  0  0  0  0
    6.0000    0.0000    0.0000 O   0  0  0  0  0  0  0  0  0  0  0  0
    6.0000   -2.5981    0.0000 N   0  0  0  0  0  0  0  0  0  0  0  0
    7.5000   -2.5981    0.0000 C   0  0  0  0  0  0  0  0  0  0  0  0
    8.2500   -3.8971    0.0000 C   0  0  0  0  0  0  0  0  0  0  0  0
    9.7500   -3.8971    0.0000 C   0  0  0  0  0  0  0  0  0  0  0  0
   10.5000   -5.1962    0.0000 O   0  0  0  0  0  0  0  0  0  0  0  0
   12.0000   -5.1962    0.0000 C   0  0  0  0  0  0  0  0  0  0  0  0
   12.7500   -6.4952    0.0000 C   0  0  0  0  0  0  0  0  0  0  0  0
   12.7500   -3.8971    0.0000 C   0  0  0  0  0  0  0  0  0  0  0  0
    5.2500   -3.8971    0.0000 C   0  0  0  0  0  0  0  0  0  0  0  0
    6.0000   -5.1962    0.0000 C   0  0  0  0  0  0  0  0  0  0  0  0
    7.5000   -5.1962    0.0000 O   0  0  0  0  0  0  0  0  0  0  0  0
    5.2500   -6.4952    0.0000 N   0  0  0  0  0  0  0  0  0  0  0  0
    6.0000   -7.7942    0.0000 C   0  0  0  0  0  0  0  0  0  0  0  0
    5.2500   -9.0933    0.0000 C   0  0  0  0  0  0  0  0  0  0  0  0
    6.0000  -10.3923    0.0000 C   0  0  0  0  0  0  0  0  0  0  0  0
    6.7500  -11.6913    0.0000 C   0  0  0  0  0  0  0  0  0  0  0  0
    7.5000   -7.7942    0.0000 C   0  0  0  0  0  0  0  0  0  0  0  0
    8.2500   -6.4952    0.0000 O   0  0  0  0  0  0  0  0  0  0  0  0
    8.2500   -9.0933    0.0000 O   0  0  0  0  0  0  0  0  0  0  0  0
  2  1  1  1
  2  3  1  0
  3  4  1  0
  4  5  2  0
  5  6  1  0
  6  7  2  0
  7  8  1  0
  8  9  2  0
  2 10  1  0
 10 11  2  0
 10 12  1  0
 12 13  1  0
 13 14  1  0
 14 15  1  0
 15 16  1  0
 16 17  1  0
 17 18  1  0
 17 19  1  0
 12 20  1  0
 20 21  1  0
 21 22  2  0
 21 23  1  0
 23 24  1  0
 24 25  1  6
 25 26  1  0
 26 27  3  0
 24 28  1  0
 28 29  2  0
 28 30  1  0
  9  4  1  0
M  END
$$$$

     RDKit          2D

 30 30  0  0  0  0  0  0  0  0999 V2000
    3.0000   -2.5981    0.0000 N   0  0  0  0  0  0  0  0  0  0  0  0
    3.7500   -1.2990    0.0000 C   0  0  0  0  0  0  0  0  0  0  0  0
    3.0000    0.0000    0.0000 C   0  0  0  0  0  0  0  0  0  0  0  0
    1.5000    0.0000    0.0000 C   0  0  0  0  0  0  0  0  0  0  0  0
    0.7500   -1.2990    0.0000 C   0  0  0  0  0  0  0  0  0  0  0  0
   -0.7500   -1.2990    0.0000 C   0  0  0  0  0  0  0  0  0  0  0  0
   -1.5000    0.0000    0.0000 C   0  0  0  0  0  0  0  0  0  0  0  0
   -0.7500    1.2990    0.0000 C   0  0  0  0  0  0  0  0  0  0  0  0
    0.7500    1.2990    0.0000 C   0  0  0  0  0  0  0  0  0  0  0  0
    5.2500   -1.2990    0.0000 C   0  0  0  0  0  0  0  0  0  0  0  0
    6.0000    0.0000    0.0000 O   0  0  0  0  0  0  0  0  0  0  0  0
    6.0000   -2.5981    0.0000 N   0  0  0  0  0  0  0  0  0  0  0  0
    7.5000   -2.5981    0.0000 C   0  0  0  0  0  0  0  0  0  0  0  0
    8.2500   -3.8971    0.0000 C   0  0  0  0  0  0  0  0  0  0  0  0
    9.7500   -3.8971    0.0000 C   0  0  0  0  0  0  0  0  0  0  0  0
   10.5000   -5.1962    0.0000 O   0  0  0  0  0  0  0  0  0  0  0  0
   12.0000   -5.1962    0.0000 C   0  0  0  0  0  0  0  0  0  0  0  0
   12.7500   -6.4952    0.0000 C   0  0  0  0  0  0  0  0  0  0  0  0
   12.7500   -3.8971    0.0000 C   0  0  0  0  0  0  0  0  0  0  0  0
    5.2500   -3.8971    0.0000 C   0  0  0  0  0  0  0  0  0  0  0  0
    6.0000   -5.1962    0.0000 C   0  0  0  0  0  0  0  0  0  0  0  0
    7.5000   -5.1962    0.0000 O   0  0  0  0  0  0  0  0  0  0  0  0
    5.2500   -6.4952    0.0000 N   0  0  0  0  0  0  0  0  0  0  0  0
    6.0000   -7.7942    0.0000 C   0  0  0  0  0  0  0  0  0  0  0  0
    5.2500   -9.0933    0.0000 C   0  0  0  0  0  0  0  0  0  0  0  0
    6.0000  -10.3923    0.0000 C   0  0  0  0  0  0  0  0  0  0  0  0
    6.7500  -11.6913    0.0000 C   0  0  0  0  0  0  0  0  0  0  0  0
    7.5000   -7.7942    0.0000 C   0  0  0  0  0  0  0  0  0  0  0  0
    8.2500   -6.4952    0.0000 O   0  0  0  0  0  0  0  0  0  0  0  0
    8.2500   -9.0933    0.0000 O   0  0  0  0  0  0  0  0  0  0  0  0
  2  1  1  6
  2  3  1  0
  3  4  1  0
  4  5  2  0
  5  6  1  0
  6  7  2  0
  7  8  1  0
  8  9  2  0
  2 10  1  0
 10 11  2  0
 10 12  1  0
 12 13  1  0
 13 14  1  0
 14 15  1  0
 15 16  1  0
 16 17  1  0
 17 18  1  0
 17 19  1  0
 12 20  1  0
 20 21  1  0
 21 22  2  0
 21 23  1  0
 23 24  1  0
 24 25  1  6
 25 26  1  0
 26 27  3  0
 24 28  1  0
 28 29  2  0
 28 30  1  0
  9  4  1  0
M  END
$$$$

     RDKit          2D

 31 31  0  0  0  0  0  0  0  0999 V2000
    3.0000   -2.5981    0.0000 N   0  0  0  0  0  0  0  0  0  0  0  0
    3.7500   -3.8971    0.0000 C   0  0  0  0  0  0  0  0  0  0  0  0
    3.7500   -1.2990    0.0000 C   0  0  0  0  0  0  0  0  0  0  0  0
    3.0000    0.0000    0.0000 C   0  0  0  0  0  0  0  0  0  0  0  0
    1.5000    0.0000    0.0000 C   0  0  0  0  0  0  0  0  0  0  0  0
    0.7500   -1.2990    0.0000 C   0  0  0  0  0  0  0  0  0  0  0  0
   -0.7500   -1.2990    0.0000 C   0  0  0  0  0  0  0  0  0  0  0  0
   -1.5000    0.0000    0.0000 C   0  0  0  0  0  0  0  0  0  0  0  0
   -0.7500    1.2990    0.0000 C   0  0  0  0  0  0  0  0  0  0  0  0
    0.7500    1.2990    0.0000 C   0  0  0  0  0  0  0  0  0  0  0  0
    5.2500   -1.2990    0.0000 C   0  0  0  0  0  0  0  0  0  0  0  0
    6.0000    0.0000    0.0000 O   0  0  0  0  0  0  0  0  0  0  0  0
    6.0000   -2.5981    0.0000 N   0  0  0  0  0  0  0  0  0  0  0  0
    7.5000   -2.5981    0.0000 C   0  0  0  0  0  0  0  0  0  0  0  0
    8.2500   -3.8971    0.0000 C   0  0  0  0  0  0  0  0  0  0  0  0
    9.7500   -3.8971    0.0000 C   0  0  0  0  0  0  0  0  0  0  0  0
   10.5000   -5.1962    0.0000 O   0  0  0  0  0  0  0  0  0  0  0  0
   12.0000   -5.1962    0.0000 C   0  0  0  0  0  0  0  0  0  0  0  0
   12.7500   -6.4952    0.0000 C   0  0  0  0  0  0  0  0  0  0  0  0
   12.7500   -3.8971    0.0000 C   0  0  0  0  0  0  0  0  0  0  0  0
    5.2500   -3.8971    0.0000 C   0  0  0  0  0  0  0  0  0  0  0  0
    6.0000   -5.1962    0.0000 C   0  0  0  0  0  0  0  0  0  0  0  0
    7.5000   -5.1962    0.0000 O   0  0  0  0  0  0  0  0  0  0  0  0
    5.2500   -6.4952    0.0000 N   0  0  0  0  0  0  0  0  0  0  0  0
    6.0000   -7.7942    0.0000 C   0  0  0  0  0  0  0  0  0  0  0  0
    5.2500   -9.0933    0.0000 C   0  0  0  0  0  0  0  0  0  0  0  0
    6.0000  -10.3923    0.0000 C   0  0  0  0  0  0  0  0  0  0  0  0
    6.7500  -11.6913    0.0000 C   0  0  0  0  0  0  0  0  0  0  0  0
    7.5000   -7.7942    0.0000 C   0  0  0  0  0  0  0  0  0  0  0  0
    8.2500   -6.4952    0.0000 O   0  0  0  0  0  0  0  0  0  0  0  0
    8.2500   -9.0933    0.0000 O   0  0  0  0  0  0  0  0  0  0  0  0
  1  2  1  0
  1  3  1  0
  3  4  1  1
  4  5  1  0
  5  6  2  0
  6  7  1  0
  7  8  2  0
  8  9  1  0
  9 10  2  0
  3 11  1  0
 11 12  2  0
 11 13  1  0
 13 14  1  0
 14 15  1  0
 15 16  1  0
 16 17  1  0
 17 18  1  0
 18 19  1  0
 18 20  1  0
 13 21  1  0
 21 22  1  0
 22 23  2  0
 22 24  1  0
 24 25  1  0
 25 26  1  6
 26 27  1  0
 27 28  3  0
 25 29  1  0
 29 30  2  0
 29 31  1  0
 10  5  1  0
M  END
$$$$

     RDKit          2D

 31 31  0  0  0  0  0  0  0  0999 V2000
    3.0000   -2.5981    0.0000 N   0  0  0  0  0  0  0  0  0  0  0  0
    3.7500   -3.8971    0.0000 C   0  0  0  0  0  0  0  0  0  0  0  0
    3.7500   -1.2990    0.0000 C   0  0  0  0  0  0  0  0  0  0  0  0
    3.0000    0.0000    0.0000 C   0  0  0  0  0  0  0  0  0  0  0  0
    1.5000    0.0000    0.0000 C   0  0  0  0  0  0  0  0  0  0  0  0
    0.7500   -1.2990    0.0000 C   0  0  0  0  0  0  0  0  0  0  0  0
   -0.7500   -1.2990    0.0000 C   0  0  0  0  0  0  0  0  0  0  0  0
   -1.5000    0.0000    0.0000 C   0  0  0  0  0  0  0  0  0  0  0  0
   -0.7500    1.2990    0.0000 C   0  0  0  0  0  0  0  0  0  0  0  0
    0.7500    1.2990    0.0000 C   0  0  0  0  0  0  0  0  0  0  0  0
    5.2500   -1.2990    0.0000 C   0  0  0  0  0  0  0  0  0  0  0  0
    6.0000    0.0000    0.0000 O   0  0  0  0  0  0  0  0  0  0  0  0
    6.0000   -2.5981    0.0000 N   0  0  0  0  0  0  0  0  0  0  0  0
    7.5000   -2.5981    0.0000 C   0  0  0  0  0  0  0  0  0  0  0  0
    8.2500   -3.8971    0.0000 C   0  0  0  0  0  0  0  0  0  0  0  0
    9.7500   -3.8971    0.0000 C   0  0  0  0  0  0  0  0  0  0  0  0
   10.5000   -5.1962    0.0000 O   0  0  0  0  0  0  0  0  0  0  0  0
   12.0000   -5.1962    0.0000 C   0  0  0  0  0  0  0  0  0  0  0  0
   12.7500   -6.4952    0.0000 C   0  0  0  0  0  0  0  0  0  0  0  0
   12.7500   -3.8971    0.0000 C   0  0  0  0  0  0  0  0  0  0  0  0
    5.2500   -3.8971    0.0000 C   0  0  0  0  0  0  0  0  0  0  0  0
    6.0000   -5.1962    0.0000 C   0  0  0  0  0  0  0  0  0  0  0  0
    7.5000   -5.1962    0.0000 O   0  0  0  0  0  0  0  0  0  0  0  0
    5.2500   -6.4952    0.0000 N   0  0  0  0  0  0  0  0  0  0  0  0
    6.0000   -7.7942    0.0000 C   0  0  0  0  0  0  0  0  0  0  0  0
    5.2500   -9.0933    0.0000 C   0  0  0  0  0  0  0  0  0  0  0  0
    6.0000  -10.3923    0.0000 C   0  0  0  0  0  0  0  0  0  0  0  0
    6.7500  -11.6913    0.0000 C   0  0  0  0  0  0  0  0  0  0  0  0
    7.5000   -7.7942    0.0000 C   0  0  0  0  0  0  0  0  0  0  0  0
    8.2500   -6.4952    0.0000 O   0  0  0  0  0  0  0  0  0  0  0  0
    8.2500   -9.0933    0.0000 O   0  0  0  0  0  0  0  0  0  0  0  0
  1  2  1  0
  1  3  1  0
  3  4  1  6
  4  5  1  0
  5  6  2  0
  6  7  1  0
  7  8  2  0
  8  9  1  0
  9 10  2  0
  3 11  1  0
 11 12  2  0
 11 13  1  0
 13 14  1  0
 14 15  1  0
 15 16  1  0
 16 17  1  0
 17 18  1  0
 18 19  1  0
 18 20  1  0
 13 21  1  0
 21 22  1  0
 22 23  2  0
 22 24  1  0
 24 25  1  0
 25 26  1  6
 26 27  1  0
 27 28  3  0
 25 29  1  0
 29 30  2  0
 29 31  1  0
 10  5  1  0
M  END
$$$$

     RDKit          2D

 26 25  0  0  0  0  0  0  0  0999 V2000
    2.5981   -1.5000    0.0000 N   0  0  0  0  0  0  0  0  0  0  0  0
    2.5981   -0.0000    0.0000 C   0  0  0  0  0  0  0  0  0  0  0  0
    1.2990    0.7500    0.0000 C   0  0  0  0  0  0  0  0  0  0  0  0
    1.2990    2.2500    0.0000 O   0  0  0  0  0  0  0  0  0  0  0  0
    0.0000    0.0000    0.0000 C   0  0  0  0  0  0  0  0  0  0  0  0
    3.8971    0.7500    0.0000 C   0  0  0  0  0  0  0  0  0  0  0  0
    3.8971    2.2500    0.0000 O   0  0  0  0  0  0  0  0  0  0  0  0
    5.1962   -0.0000    0.0000 N   0  0  0  0  0  0  0  0  0  0  0  0
    6.4952    0.7500    0.0000 C   0  0  0  0  0  0  0  0  0  0  0  0
    7.7942   -0.0000    0.0000 C   0  0  0  0  0  0  0  0  0  0  0  0
    9.0933    0.7500    0.0000 C   0  0  0  0  0  0  0  0  0  0  0  0
   10.3923   -0.0000    0.0000 O   0  0  0  0  0  0  0  0  0  0  0  0
   11.6913    0.7500    0.0000 C   0  0  0  0  0  0  0  0  0  0  0  0
   12.9904   -0.0000    0.0000 C   0  0  0  0  0  0  0  0  0  0  0  0
   11.6913    2.2500    0.0000 C   0  0  0  0  0  0  0  0  0  0  0  0
    5.1962   -1.5000    0.0000 C   0  0  0  0  0  0  0  0  0  0  0  0
    6.4952   -2.2500    0.0000 C   0  0  0  0  0  0  0  0  0  0  0  0
    7.7942   -1.5000    0.0000 O   0  0  0  0  0  0  0  0  0  0  0  0
    6.4952   -3.7500    0.0000 N   0  0  0  0  0  0  0  0  0  0  0  0
    7.7942   -4.5000    0.0000 C   0  0  0  0  0  0  0  0  0  0  0  0
    7.7942   -6.0000    0.0000 C   0  0  0  0  0  0  0  0  0  0  0  0
    9.0933   -6.7500    0.0000 C   0  0  0  0  0  0  0  0  0  0  0  0
   10.3923   -7.5000    0.0000 C   0  0  0  0  0  0  0  0  0  0  0  0
    9.0933   -3.7500    0.0000 C   0  0  0  0  0  0  0  0  0  0  0  0
    9.0933   -2.2500    0.0000 O   0  0  0  0  0  0  0  0  0  0  0  0
   10.3923   -4.5000    0.0000 O   0  0  0  0  0  0  0  0  0  0  0  0
  2  1  1  1
  2  3  1  0
  3  4  1  0
  3  5  1  1
  2  6  1  0
  6  7  2  0
  6  8  1  0
  8  9  1  0
  9 10  1  0
 10 11  1  0
 11 12  1  0
 12 13  1  0
 13 14  1  0
 13 15  1  0
  8 16  1  0
 16 17  1  0
 17 18  2  0
 17 19  1  0
 19 20  1  0
 20 21  1  6
 21 22  1  0
 22 23  3  0
 20 24  1  0
 24 25  2  0
 24 26  1  0
M  END
$$$$

     RDKit          2D

 26 25  0  0  0  0  0  0  0  0999 V2000
    2.5981   -1.5000    0.0000 N   0  0  0  0  0  0  0  0  0  0  0  0
    2.5981   -0.0000    0.0000 C   0  0  0  0  0  0  0  0  0  0  0  0
    1.2990    0.7500    0.0000 C   0  0  0  0  0  0  0  0  0  0  0  0
    1.2990    2.2500    0.0000 O   0  0  0  0  0  0  0  0  0  0  0  0
    0.0000    0.0000    0.0000 C   0  0  0  0  0  0  0  0  0  0  0  0
    3.8971    0.7500    0.0000 C   0  0  0  0  0  0  0  0  0  0  0  0
    3.8971    2.2500    0.0000 O   0  0  0  0  0  0  0  0  0  0  0  0
    5.1962   -0.0000    0.0000 N   0  0  0  0  0  0  0  0  0  0  0  0
    6.4952    0.7500    0.0000 C   0  0  0  0  0  0  0  0  0  0  0  0
    7.7942   -0.0000    0.0000 C   0  0  0  0  0  0  0  0  0  0  0  0
    9.0933    0.7500    0.0000 C   0  0  0  0  0  0  0  0  0  0  0  0
   10.3923   -0.0000    0.0000 O   0  0  0  0  0  0  0  0  0  0  0  0
   11.6913    0.7500    0.0000 C   0  0  0  0  0  0  0  0  0  0  0  0
   12.9904   -0.0000    0.0000 C   0  0  0  0  0  0  0  0  0  0  0  0
   11.6913    2.2500    0.0000 C   0  0  0  0  0  0  0  0  0  0  0  0
    5.1962   -1.5000    0.0000 C   0  0  0  0  0  0  0  0  0  0  0  0
    6.4952   -2.2500    0.0000 C   0  0  0  0  0  0  0  0  0  0  0  0
    7.7942   -1.5000    0.0000 O   0  0  0  0  0  0  0  0  0  0  0  0
    6.4952   -3.7500    0.0000 N   0  0  0  0  0  0  0  0  0  0  0  0
    7.7942   -4.5000    0.0000 C   0  0  0  0  0  0  0  0  0  0  0  0
    7.7942   -6.0000    0.0000 C   0  0  0  0  0  0  0  0  0  0  0  0
    9.0933   -6.7500    0.0000 C   0  0  0  0  0  0  0  0  0  0  0  0
   10.3923   -7.5000    0.0000 C   0  0  0  0  0  0  0  0  0  0  0  0
    9.0933   -3.7500    0.0000 C   0  0  0  0  0  0  0  0  0  0  0  0
    9.0933   -2.2500    0.0000 O   0  0  0  0  0  0  0  0  0  0  0  0
   10.3923   -4.5000    0.0000 O   0  0  0  0  0  0  0  0  0  0  0  0
  2  1  1  6
  2  3  1  0
  3  4  1  0
  3  5  1  1
  2  6  1  0
  6  7  2  0
  6  8  1  0
  8  9  1  0
  9 10  1  0
 10 11  1  0
 11 12  1  0
 12 13  1  0
 13 14  1  0
 13 15  1  0
  8 16  1  0
 16 17  1  0
 17 18  2  0
 17 19  1  0
 19 20  1  0
 20 21  1  6
 21 22  1  0
 22 23  3  0
 20 24  1  0
 24 25  2  0
 24 26  1  0
M  END
$$$$

     RDKit          2D

 27 26  0  0  0  0  0  0  0  0999 V2000
    1.2990    0.7500    0.0000 N   0  0  0  0  0  0  0  0  0  0  0  0
    0.0000    0.0000    0.0000 C   0  0  0  0  0  0  0  0  0  0  0  0
    2.5981   -0.0000    0.0000 C   0  0  0  0  0  0  0  0  0  0  0  0
    3.8971    0.7500    0.0000 C   0  0  0  0  0  0  0  0  0  0  0  0
    3.8971    2.2500    0.0000 O   0  0  0  0  0  0  0  0  0  0  0  0
    5.1962   -0.0000    0.0000 C   0  0  0  0  0  0  0  0  0  0  0  0
    2.5981   -1.5000    0.0000 C   0  0  0  0  0  0  0  0  0  0  0  0
    1.2990   -2.2500    0.0000 O   0  0  0  0  0  0  0  0  0  0  0  0
    3.8971   -2.2500    0.0000 N   0  0  0  0  0  0  0  0  0  0  0  0
    3.8971   -3.7500    0.0000 C   0  0  0  0  0  0  0  0  0  0  0  0
    5.1962   -4.5000    0.0000 C   0  0  0  0  0  0  0  0  0  0  0  0
    5.1962   -6.0000    0.0000 C   0  0  0  0  0  0  0  0  0  0  0  0
    6.4952   -6.7500    0.0000 O   0  0  0  0  0  0  0  0  0  0  0  0
    6.4952   -8.2500    0.0000 C   0  0  0  0  0  0  0  0  0  0  0  0
    7.7942   -9.0000    0.0000 C   0  0  0  0  0  0  0  0  0  0  0  0
    5.1962   -9.0000    0.0000 C   0  0  0  0  0  0  0  0  0  0  0  0
    5.1962   -1.5000    0.0000 C   0  0  0  0  0  0  0  0  0  0  0  0
    6.4952   -2.2500    0.0000 C   0  0  0  0  0  0  0  0  0  0  0  0
    6.4952   -3.7500    0.0000 O   0  0  0  0  0  0  0  0  0  0  0  0
    7.7942   -1.5000    0.0000 N   0  0  0  0  0  0  0  0  0  0  0  0
    9.0933   -2.2500    0.0000 C   0  0  0  0  0  0  0  0  0  0  0  0
   10.3923   -1.5000    0.0000 C   0  0  0  0  0  0  0  0  0  0  0  0
   11.6913   -2.2500    0.0000 C   0  0  0  0  0  0  0  0  0  0  0  0
   12.9904   -3.0000    0.0000 C   0  0  0  0  0  0  0  0  0  0  0  0
    9.0933   -3.7500    0.0000 C   0  0  0  0  0  0  0  0  0  0  0  0
    7.7942   -4.5000    0.0000 O   0  0  0  0  0  0  0  0  0  0  0  0
   10.3923   -4.5000    0.0000 O   0  0  0  0  0  0  0  0  0  0  0  0
  1  2  1  0
  3  1  1  1
  3  4  1  0
  4  5  1  0
  4  6  1  6
  3  7  1  0
  7  8  2  0
  7  9  1  0
  9 10  1  0
 10 11  1  0
 11 12  1  0
 12 13  1  0
 13 14  1  0
 14 15  1  0
 14 16  1  0
  9 17  1  0
 17 18  1  0
 18 19  2  0
 18 20  1  0
 20 21  1  0
 21 22  1  1
 22 23  1  0
 23 24  3  0
 21 25  1  0
 25 26  2  0
 25 27  1  0
M  END
$$$$

     RDKit          2D

 27 26  0  0  0  0  0  0  0  0999 V2000
    1.2990    0.7500    0.0000 N   0  0  0  0  0  0  0  0  0  0  0  0
    0.0000    0.0000    0.0000 C   0  0  0  0  0  0  0  0  0  0  0  0
    2.5981   -0.0000    0.0000 C   0  0  0  0  0  0  0  0  0  0  0  0
    3.8971    0.7500    0.0000 C   0  0  0  0  0  0  0  0  0  0  0  0
    3.8971    2.2500    0.0000 O   0  0  0  0  0  0  0  0  0  0  0  0
    5.1962   -0.0000    0.0000 C   0  0  0  0  0  0  0  0  0  0  0  0
    2.5981   -1.5000    0.0000 C   0  0  0  0  0  0  0  0  0  0  0  0
    1.2990   -2.2500    0.0000 O   0  0  0  0  0  0  0  0  0  0  0  0
    3.8971   -2.2500    0.0000 N   0  0  0  0  0  0  0  0  0  0  0  0
    3.8971   -3.7500    0.0000 C   0  0  0  0  0  0  0  0  0  0  0  0
    5.1962   -4.5000    0.0000 C   0  0  0  0  0  0  0  0  0  0  0  0
    5.1962   -6.0000    0.0000 C   0  0  0  0  0  0  0  0  0  0  0  0
    6.4952   -6.7500    0.0000 O   0  0  0  0  0  0  0  0  0  0  0  0
    6.4952   -8.2500    0.0000 C   0  0  0  0  0  0  0  0  0  0  0  0
    7.7942   -9.0000    0.0000 C   0  0  0  0  0  0  0  0  0  0  0  0
    5.1962   -9.0000    0.0000 C   0  0  0  0  0  0  0  0  0  0  0  0
    5.1962   -1.5000    0.0000 C   0  0  0  0  0  0  0  0  0  0  0  0
    6.4952   -2.2500    0.0000 C   0  0  0  0  0  0  0  0  0  0  0  0
    6.4952   -3.7500    0.0000 O   0  0  0  0  0  0  0  0  0  0  0  0
    7.7942   -1.5000    0.0000 N   0  0  0  0  0  0  0  0  0  0  0  0
    9.0933   -2.2500    0.0000 C   0  0  0  0  0  0  0  0  0  0  0  0
   10.3923   -1.5000    0.0000 C   0  0  0  0  0  0  0  0  0  0  0  0
   11.6913   -2.2500    0.0000 C   0  0  0  0  0  0  0  0  0  0  0  0
   12.9904   -3.0000    0.0000 C   0  0  0  0  0  0  0  0  0  0  0  0
    9.0933   -3.7500    0.0000 C   0  0  0  0  0  0  0  0  0  0  0  0
    7.7942   -4.5000    0.0000 O   0  0  0  0  0  0  0  0  0  0  0  0
   10.3923   -4.5000    0.0000 O   0  0  0  0  0  0  0  0  0  0  0  0
  1  2  1  0
  3  1  1  6
  3  4  1  0
  4  5  1  0
  4  6  1  6
  3  7  1  0
  7  8  2  0
  7  9  1  0
  9 10  1  0
 10 11  1  0
 11 12  1  0
 12 13  1  0
 13 14  1  0
 14 15  1  0
 14 16  1  0
  9 17  1  0
 17 18  1  0
 18 19  2  0
 18 20  1  0
 20 21  1  0
 21 22  1  1
 22 23  1  0
 23 24  3  0
 21 25  1  0
 25 26  2  0
 25 27  1  0
M  END
$$$$

     RDKit          2D

 27 26  0  0  0  0  0  0  0  0999 V2000
    2.5981    3.0000    0.0000 N   0  0  0  0  0  0  0  0  0  0  0  0
    1.2990    2.2500    0.0000 C   0  0  0  0  0  0  0  0  0  0  0  0
    1.2990    0.7500    0.0000 C   0  0  0  0  0  0  0  0  0  0  0  0
    0.0000    0.0000    0.0000 C   0  0  0  0  0  0  0  0  0  0  0  0
    2.5981   -0.0000    0.0000 C   0  0  0  0  0  0  0  0  0  0  0  0
    2.5981    4.5000    0.0000 C   0  0  0  0  0  0  0  0  0  0  0  0
    3.8971    5.2500    0.0000 C   0  0  0  0  0  0  0  0  0  0  0  0
    5.1962    4.5000    0.0000 O   0  0  0  0  0  0  0  0  0  0  0  0
    3.8971    6.7500    0.0000 N   0  0  0  0  0  0  0  0  0  0  0  0
    5.1962    7.5000    0.0000 C   0  0  0  0  0  0  0  0  0  0  0  0
    5.1962    9.0000    0.0000 C   0  0  0  0  0  0  0  0  0  0  0  0
    6.4952    9.7500    0.0000 C   0  0  0  0  0  0  0  0  0  0  0  0
    6.4952   11.2500    0.0000 O   0  0  0  0  0  0  0  0  0  0  0  0
    7.7942   12.0000    0.0000 C   0  0  0  0  0  0  0  0  0  0  0  0
    7.7942   13.5000    0.0000 C   0  0  0  0  0  0  0  0  0  0  0  0
    9.0933   11.2500    0.0000 C   0  0  0  0  0  0  0  0  0  0  0  0
    2.5981    7.5000    0.0000 C   0  0  0  0  0  0  0  0  0  0  0  0
    2.5981    9.0000    0.0000 C   0  0  0  0  0  0  0  0  0  0  0  0
    3.8971    9.7500    0.0000 O   0  0  0  0  0  0  0  0  0  0  0  0
    1.2990    9.7500    0.0000 N   0  0  0  0  0  0  0  0  0  0  0  0
    1.2990   11.2500    0.0000 C   0  0  0  0  0  0  0  0  0  0  0  0
    0.0000   12.0000    0.0000 C   0  0  0  0  0  0  0  0  0  0  0  0
    0.0000   13.5000    0.0000 C   0  0  0  0  0  0  0  0  0  0  0  0
    0.0000   15.0000    0.0000 C   0  0  0  0  0  0  0  0  0  0  0  0
    2.5981   12.0000    0.0000 C   0  0  0  0  0  0  0  0  0  0  0  0
    3.8971   11.2500    0.0000 O   0  0  0  0  0  0  0  0  0  0  0  0
    2.5981   13.5000    0.0000 O   0  0  0  0  0  0  0  0  0  0  0  0
  1  2  1  0
  2  3  1  0
  3  4  1  0
  3  5  1  0
  1  6  1  0
  6  7  1  0
  7  8  2  0
  7  9  1  0
  9 10  1  0
 10 11  1  0
 11 12  1  0
 12 13  1  0
 13 14  1  0
 14 15  1  0
 14 16  1  0
  9 17  1  0
 17 18  1  0
 18 19  2  0
 18 20  1  0
 20 21  1  0
 21 22  1  1
 22 23  1  0
 23 24  3  0
 21 25  1  0
 25 26  2  0
 25 27  1  0
M  END
$$$$

     RDKit          2D

 30 29  0  0  0  0  0  0  0  0999 V2000
    3.8971    6.7500    0.0000 N   0  0  0  0  0  0  0  0  0  0  0  0
    3.8971    5.2500    0.0000 C   0  0  0  0  0  0  0  0  0  0  0  0
    2.5981    4.5000    0.0000 C   0  0  0  0  0  0  0  0  0  0  0  0
    2.5981    3.0000    0.0000 C   0  0  0  0  0  0  0  0  0  0  0  0
    1.2990    2.2500    0.0000 O   0  0  0  0  0  0  0  0  0  0  0  0
    1.2990    0.7500    0.0000 C   0  0  0  0  0  0  0  0  0  0  0  0
    0.0000    0.0000    0.0000 C   0  0  0  0  0  0  0  0  0  0  0  0
    2.5981   -0.0000    0.0000 C   0  0  0  0  0  0  0  0  0  0  0  0
    5.1962    7.5000    0.0000 C   0  0  0  0  0  0  0  0  0  0  0  0
    5.1962    9.0000    0.0000 C   0  0  0  0  0  0  0  0  0  0  0  0
    3.8971    9.7500    0.0000 O   0  0  0  0  0  0  0  0  0  0  0  0
    6.4952    9.7500    0.0000 N   0  0  0  0  0  0  0  0  0  0  0  0
    6.4952   11.2500    0.0000 C   0  0  0  0  0  0  0  0  0  0  0  0
    7.7942   12.0000    0.0000 C   0  0  0  0  0  0  0  0  0  0  0  0
    7.7942   13.5000    0.0000 C   0  0  0  0  0  0  0  0  0  0  0  0
    9.0933   14.2500    0.0000 O   0  0  0  0  0  0  0  0  0  0  0  0
    9.0933   15.7500    0.0000 C   0  0  0  0  0  0  0  0  0  0  0  0
   10.3923   16.5000    0.0000 C   0  0  0  0  0  0  0  0  0  0  0  0
    7.7942   16.5000    0.0000 C   0  0  0  0  0  0  0  0  0  0  0  0
    7.7942    9.0000    0.0000 C   0  0  0  0  0  0  0  0  0  0  0  0
    9.0933    9.7500    0.0000 C   0  0  0  0  0  0  0  0  0  0  0  0
    9.0933   11.2500    0.0000 O   0  0  0  0  0  0  0  0  0  0  0  0
   10.3923    9.0000    0.0000 N   0  0  0  0  0  0  0  0  0  0  0  0
   11.6913    9.7500    0.0000 C   0  0  0  0  0  0  0  0  0  0  0  0
   12.9904    9.0000    0.0000 C   0  0  0  0  0  0  0  0  0  0  0  0
   14.2894    9.7500    0.0000 C   0  0  0  0  0  0  0  0  0  0  0  0
   15.5885   10.5000    0.0000 C   0  0  0  0  0  0  0  0  0  0  0  0
   11.6913   11.2500    0.0000 C   0  0  0  0  0  0  0  0  0  0  0  0
   10.3923   12.0000    0.0000 O   0  0  0  0  0  0  0  0  0  0  0  0
   12.9904   12.0000    0.0000 O   0  0  0  0  0  0  0  0  0  0  0  0
  1  2  1  0
  2  3  1  0
  3  4  1  0
  4  5  1  0
  5  6  1  0
  6  7  1  0
  6  8  1  0
  1  9  1  0
  9 10  1  0
 10 11  2  0
 10 12  1  0
 12 13  1  0
 13 14  1  0
 14 15  1  0
 15 16  1  0
 16 17  1  0
 17 18  1  0
 17 19  1  0
 12 20  1  0
 20 21  1  0
 21 22  2  0
 21 23  1  0
 23 24  1  0
 24 25  1  6
 25 26  1  0
 26 27  3  0
 24 28  1  0
 28 29  2  0
 28 30  1  0
M  END
$$$$

     RDKit          2D

 32 32  0  0  0  0  0  0  0  0999 V2000
    6.0000   -2.5981    0.0000 N   0  0  0  0  0  0  0  0  0  0  0  0
    5.2500   -1.2990    0.0000 C   0  0  0  0  0  0  0  0  0  0  0  0
    3.7500   -1.2990    0.0000 C   0  0  0  0  0  0  0  0  0  0  0  0
    3.0000    0.0000    0.0000 O   0  0  0  0  0  0  0  0  0  0  0  0
    1.5000    0.0000    0.0000 C   0  0  0  0  0  0  0  0  0  0  0  0
    0.7500   -1.2990    0.0000 C   0  0  0  0  0  0  0  0  0  0  0  0
   -0.7500   -1.2990    0.0000 C   0  0  0  0  0  0  0  0  0  0  0  0
   -1.5000    0.0000    0.0000 C   0  0  0  0  0  0  0  0  0  0  0  0
   -0.7500    1.2990    0.0000 C   0  0  0  0  0  0  0  0  0  0  0  0
    0.7500    1.2990    0.0000 C   0  0  0  0  0  0  0  0  0  0  0  0
    7.5000   -2.5981    0.0000 C   0  0  0  0  0  0  0  0  0  0  0  0
    8.2500   -3.8971    0.0000 C   0  0  0  0  0  0  0  0  0  0  0  0
    7.5000   -5.1962    0.0000 O   0  0  0  0  0  0  0  0  0  0  0  0
    9.7500   -3.8971    0.0000 N   0  0  0  0  0  0  0  0  0  0  0  0
   10.5000   -5.1962    0.0000 C   0  0  0  0  0  0  0  0  0  0  0  0
   12.0000   -5.1962    0.0000 C   0  0  0  0  0  0  0  0  0  0  0  0
   12.7500   -6.4952    0.0000 C   0  0  0  0  0  0  0  0  0  0  0  0
   14.2500   -6.4952    0.0000 O   0  0  0  0  0  0  0  0  0  0  0  0
   15.0000   -7.7942    0.0000 C   0  0  0  0  0  0  0  0  0  0  0  0
   16.5000   -7.7942    0.0000 C   0  0  0  0  0  0  0  0  0  0  0  0
   14.2500   -9.0933    0.0000 C   0  0  0  0  0  0  0  0  0  0  0  0
   10.5000   -2.5981    0.0000 C   0  0  0  0  0  0  0  0  0  0  0  0
   12.0000   -2.5981    0.0000 C   0  0  0  0  0  0  0  0  0  0  0  0
   12.7500   -3.8971    0.0000 O   0  0  0  0  0  0  0  0  0  0  0  0
   12.7500   -1.2990    0.0000 N   0  0  0  0  0  0  0  0  0  0  0  0
   14.2500   -1.2990    0.0000 C   0  0  0  0  0  0  0  0  0  0  0  0
   15.0000    0.0000    0.0000 C   0  0  0  0  0  0  0  0  0  0  0  0
   16.5000    0.0000    0.0000 C   0  0  0  0  0  0  0  0  0  0  0  0
   18.0000    0.0000    0.0000 C   0  0  0  0  0  0  0  0  0  0  0  0
   15.0000   -2.5981    0.0000 C   0  0  0  0  0  0  0  0  0  0  0  0
   14.2500   -3.8971    0.0000 O   0  0  0  0  0  0  0  0  0  0  0  0
   16.5000   -2.5981    0.0000 O   0  0  0  0  0  0  0  0  0  0  0  0
  1  2  1  0
  2  3  1  0
  3  4  1  0
  4  5  1  0
  5  6  2  0
  6  7  1  0
  7  8  2  0
  8  9  1  0
  9 10  2  0
  1 11  1  0
 11 12  1  0
 12 13  2  0
 12 14  1  0
 14 15  1  0
 15 16  1  0
 16 17  1  0
 17 18  1  0
 18 19  1  0
 19 20  1  0
 19 21  1  0
 14 22  1  0
 22 23  1  0
 23 24  2  0
 23 25  1  0
 25 26  1  0
 26 27  1  1
 27 28  1  0
 28 29  3  0
 26 30  1  0
 30 31  2  0
 30 32  1  0
 10  5  1  0
M  END
$$$$

     RDKit          2D

 35 35  0  0  0  0  0  0  0  0999 V2000
    5.2500   -1.2990    0.0000 N   0  0  0  0  0  0  0  0  0  0  0  0
    3.7500   -1.2990    0.0000 C   0  0  0  0  0  0  0  0  0  0  0  0
    3.0000    0.0000    0.0000 C   0  0  0  0  0  0  0  0  0  0  0  0
    1.5000    0.0000    0.0000 C   0  0  0  0  0  0  0  0  0  0  0  0
    0.7500   -1.2990    0.0000 C   0  0  0  0  0  0  0  0  0  0  0  0
   -0.7500   -1.2990    0.0000 C   0  0  0  0  0  0  0  0  0  0  0  0
   -1.5000    0.0000    0.0000 C   0  0  0  0  0  0  0  0  0  0  0  0
   -0.7500    1.2990    0.0000 C   0  0  0  0  0  0  0  0  0  0  0  0
   -1.5000    2.5981    0.0000 O   0  0  0  0  0  0  0  0  0  0  0  0
   -0.7500    3.8971    0.0000 C   0  0  0  0  0  0  0  0  0  0  0  0
    0.7500    1.2990    0.0000 C   0  0  0  0  0  0  0  0  0  0  0  0
   -3.0000    0.0000    0.0000 O   0  0  0  0  0  0  0  0  0  0  0  0
   -3.7500    1.2990    0.0000 C   0  0  0  0  0  0  0  0  0  0  0  0
    6.0000   -2.5981    0.0000 C   0  0  0  0  0  0  0  0  0  0  0  0
    7.5000   -2.5981    0.0000 C   0  0  0  0  0  0  0  0  0  0  0  0
    8.2500   -1.2990    0.0000 O   0  0  0  0  0  0  0  0  0  0  0  0
    8.2500   -3.8971    0.0000 N   0  0  0  0  0  0  0  0  0  0  0  0
    9.7500   -3.8971    0.0000 C   0  0  0  0  0  0  0  0  0  0  0  0
   10.5000   -5.1962    0.0000 C   0  0  0  0  0  0  0  0  0  0  0  0
   12.0000   -5.1962    0.0000 C   0  0  0  0  0  0  0  0  0  0  0  0
   12.7500   -6.4952    0.0000 O   0  0  0  0  0  0  0  0  0  0  0  0
   14.2500   -6.4952    0.0000 C   0  0  0  0  0  0  0  0  0  0  0  0
   15.0000   -7.7942    0.0000 C   0  0  0  0  0  0  0  0  0  0  0  0
   15.0000   -5.1962    0.0000 C   0  0  0  0  0  0  0  0  0  0  0  0
    7.5000   -5.1962    0.0000 C   0  0  0  0  0  0  0  0  0  0  0  0
    8.2500   -6.4952    0.0000 C   0  0  0  0  0  0  0  0  0  0  0  0
    9.7500   -6.4952    0.0000 O   0  0  0  0  0  0  0  0  0  0  0  0
    7.5000   -7.7942    0.0000 N   0  0  0  0  0  0  0  0  0  0  0  0
    8.2500   -9.0933    0.0000 C   0  0  0  0  0  0  0  0  0  0  0  0
    7.5000  -10.3923    0.0000 C   0  0  0  0  0  0  0  0  0  0  0  0
    8.2500  -11.6913    0.0000 C   0  0  0  0  0  0  0  0  0  0  0  0
    9.0000  -12.9904    0.0000 C   0  0  0  0  0  0  0  0  0  0  0  0
    9.7500   -9.0933    0.0000 C   0  0  0  0  0  0  0  0  0  0  0  0
   10.5000   -7.7942    0.0000 O   0  0  0  0  0  0  0  0  0  0  0  0
   10.5000  -10.3923    0.0000 O   0  0  0  0  0  0  0  0  0  0  0  0
  1  2  1  0
  2  3  1  0
  3  4  1  0
  4  5  2  0
  5  6  1  0
  6  7  2  0
  7  8  1  0
  8  9  1  0
  9 10  1  0
  8 11  2  0
  7 12  1  0
 12 13  1  0
  1 14  1  0
 14 15  1  0
 15 16  2  0
 15 17  1  0
 17 18  1  0
 18 19  1  0
 19 20  1  0
 20 21  1  0
 21 22  1  0
 22 23  1  0
 22 24  1  0
 17 25  1  0
 25 26  1  0
 26 27  2  0
 26 28  1  0
 28 29  1  0
 29 30  1  6
 30 31  1  0
 31 32  3  0
 29 33  1  0
 33 34  2  0
 33 35  1  0
 11  4  1  0
M  END
$$$$

     RDKit          2D

 42 42  0  0  0  0  0  0  0  0999 V2000
    1.2760    5.1962    0.0000 N   0  0  0  0  0  0  0  0  0  0  0  0
    2.7760    5.1962    0.0000 C   0  0  0  0  0  0  0  0  0  0  0  0
    3.5260    6.4952    0.0000 C   0  0  0  0  0  0  0  0  0  0  0  0
    2.7760    7.7942    0.0000 C   0  0  0  0  0  0  0  0  0  0  0  0
    3.5260    9.0933    0.0000 C   0  0  0  0  0  0  0  0  0  0  0  0
    1.2760    7.7942    0.0000 C   0  0  0  0  0  0  0  0  0  0  0  0
    3.5260    3.8971    0.0000 C   0  0  0  0  0  0  0  0  0  0  0  0
    5.0260    3.8971    0.0000 O   0  0  0  0  0  0  0  0  0  0  0  0
    2.7760    2.5981    0.0000 N   0  0  0  0  0  0  0  0  0  0  0  0
    3.5260    1.2990    0.0000 C   0  0  0  0  0  0  0  0  0  0  0  0
    5.0260    1.2990    0.0000 C   0  0  0  0  0  0  0  0  0  0  0  0
    5.7760    0.0000    0.0000 C   0  0  0  0  0  0  0  0  0  0  0  0
    7.2760    0.0000    0.0000 C   0  0  0  0  0  0  0  0  0  0  0  0
    5.0260   -1.2990    0.0000 C   0  0  0  0  0  0  0  0  0  0  0  0
    2.7760    0.0000    0.0000 C   0  0  0  0  0  0  0  0  0  0  0  0
    3.5260   -1.2990    0.0000 O   0  0  0  0  0  0  0  0  0  0  0  0
    1.2760    0.0000    0.0000 N   0  0  0  0  0  0  0  0  0  0  0  0
    0.3943    1.2135    0.0000 C   0  0  0  0  0  0  0  0  0  0  0  0
   -1.0323    0.7500    0.0000 C   0  0  0  0  0  0  0  0  0  0  0  0
   -1.0323   -0.7500    0.0000 C   0  0  0  0  0  0  0  0  0  0  0  0
    0.3943   -1.2135    0.0000 C   0  0  0  0  0  0  0  0  0  0  0  0
    0.8578   -2.6401    0.0000 C   0  0  0  0  0  0  0  0  0  0  0  0
    2.3250   -2.9520    0.0000 O   0  0  0  0  0  0  0  0  0  0  0  0
   -0.1459   -3.7548    0.0000 N   0  0  0  0  0  0  0  0  0  0  0  0
    0.3177   -5.1814    0.0000 C   0  0  0  0  0  0  0  0  0  0  0  0
   -0.6860   -6.2961    0.0000 C   0  0  0  0  0  0  0  0  0  0  0  0
   -0.2225   -7.7227    0.0000 C   0  0  0  0  0  0  0  0  0  0  0  0
   -1.2262   -8.8374    0.0000 O   0  0  0  0  0  0  0  0  0  0  0  0
   -0.7627  -10.2640    0.0000 C   0  0  0  0  0  0  0  0  0  0  0  0
   -1.7664  -11.3787    0.0000 C   0  0  0  0  0  0  0  0  0  0  0  0
    0.7045  -10.5759    0.0000 C   0  0  0  0  0  0  0  0  0  0  0  0
   -1.6131   -3.4430    0.0000 C   0  0  0  0  0  0  0  0  0  0  0  0
   -2.6168   -4.5577    0.0000 C   0  0  0  0  0  0  0  0  0  0  0  0
   -2.1533   -5.9843    0.0000 O   0  0  0  0  0  0  0  0  0  0  0  0
   -4.0840   -4.2458    0.0000 N   0  0  0  0  0  0  0  0  0  0  0  0
   -5.0877   -5.3605    0.0000 C   0  0  0  0  0  0  0  0  0  0  0  0
   -6.5549   -5.0487    0.0000 C   0  0  0  0  0  0  0  0  0  0  0  0
   -7.5586   -6.1634    0.0000 C   0  0  0  0  0  0  0  0  0  0  0  0
   -8.5623   -7.2781    0.0000 C   0  0  0  0  0  0  0  0  0  0  0  0
   -4.6242   -6.7871    0.0000 C   0  0  0  0  0  0  0  0  0  0  0  0
   -3.1570   -7.0990    0.0000 O   0  0  0  0  0  0  0  0  0  0  0  0
   -5.6279   -7.9018    0.0000 O   0  0  0  0  0  0  0  0  0  0  0  0
  2  1  1  1
  2  3  1  0
  3  4  1  0
  4  5  1  0
  4  6  1  0
  2  7  1  0
  7  8  2  0
  7  9  1  0
  9 10  1  0
 10 11  1  1
 11 12  1  0
 12 13  1  0
 12 14  1  0
 10 15  1  0
 15 16  2  0
 15 17  1  0
 17 18  1  0
 18 19  1  0
 19 20  1  0
 20 21  1  0
 21 22  1  6
 22 23  2  0
 22 24  1  0
 24 25  1  0
 25 26  1  0
 26 27  1  0
 27 28  1  0
 28 29  1  0
 29 30  1  0
 29 31  1  0
 24 32  1  0
 32 33  1  0
 33 34  2  0
 33 35  1  0
 35 36  1  0
 36 37  1  6
 37 38  1  0
 38 39  3  0
 36 40  1  0
 40 41  2  0
 40 42  1  0
 21 17  1  0
M  END
$$$$

     RDKit          2D

 42 42  0  0  0  0  0  0  0  0999 V2000
    1.2760    5.1962    0.0000 N   0  0  0  0  0  0  0  0  0  0  0  0
    2.7760    5.1962    0.0000 C   0  0  0  0  0  0  0  0  0  0  0  0
    3.5260    6.4952    0.0000 C   0  0  0  0  0  0  0  0  0  0  0  0
    2.7760    7.7942    0.0000 C   0  0  0  0  0  0  0  0  0  0  0  0
    3.5260    9.0933    0.0000 C   0  0  0  0  0  0  0  0  0  0  0  0
    1.2760    7.7942    0.0000 C   0  0  0  0  0  0  0  0  0  0  0  0
    3.5260    3.8971    0.0000 C   0  0  0  0  0  0  0  0  0  0  0  0
    5.0260    3.8971    0.0000 O   0  0  0  0  0  0  0  0  0  0  0  0
    2.7760    2.5981    0.0000 N   0  0  0  0  0  0  0  0  0  0  0  0
    3.5260    1.2990    0.0000 C   0  0  0  0  0  0  0  0  0  0  0  0
    5.0260    1.2990    0.0000 C   0  0  0  0  0  0  0  0  0  0  0  0
    5.7760    0.0000    0.0000 C   0  0  0  0  0  0  0  0  0  0  0  0
    7.2760    0.0000    0.0000 C   0  0  0  0  0  0  0  0  0  0  0  0
    5.0260   -1.2990    0.0000 C   0  0  0  0  0  0  0  0  0  0  0  0
    2.7760    0.0000    0.0000 C   0  0  0  0  0  0  0  0  0  0  0  0
    3.5260   -1.2990    0.0000 O   0  0  0  0  0  0  0  0  0  0  0  0
    1.2760    0.0000    0.0000 N   0  0  0  0  0  0  0  0  0  0  0  0
    0.3943    1.2135    0.0000 C   0  0  0  0  0  0  0  0  0  0  0  0
   -1.0323    0.7500    0.0000 C   0  0  0  0  0  0  0  0  0  0  0  0
   -1.0323   -0.7500    0.0000 C   0  0  0  0  0  0  0  0  0  0  0  0
    0.3943   -1.2135    0.0000 C   0  0  0  0  0  0  0  0  0  0  0  0
    0.8578   -2.6401    0.0000 C   0  0  0  0  0  0  0  0  0  0  0  0
    2.3250   -2.9520    0.0000 O   0  0  0  0  0  0  0  0  0  0  0  0
   -0.1459   -3.7548    0.0000 N   0  0  0  0  0  0  0  0  0  0  0  0
    0.3177   -5.1814    0.0000 C   0  0  0  0  0  0  0  0  0  0  0  0
   -0.6860   -6.2961    0.0000 C   0  0  0  0  0  0  0  0  0  0  0  0
   -0.2225   -7.7227    0.0000 C   0  0  0  0  0  0  0  0  0  0  0  0
   -1.2262   -8.8374    0.0000 O   0  0  0  0  0  0  0  0  0  0  0  0
   -0.7627  -10.2640    0.0000 C   0  0  0  0  0  0  0  0  0  0  0  0
   -1.7664  -11.3787    0.0000 C   0  0  0  0  0  0  0  0  0  0  0  0
    0.7045  -10.5759    0.0000 C   0  0  0  0  0  0  0  0  0  0  0  0
   -1.6131   -3.4430    0.0000 C   0  0  0  0  0  0  0  0  0  0  0  0
   -2.6168   -4.5577    0.0000 C   0  0  0  0  0  0  0  0  0  0  0  0
   -2.1533   -5.9843    0.0000 O   0  0  0  0  0  0  0  0  0  0  0  0
   -4.0840   -4.2458    0.0000 N   0  0  0  0  0  0  0  0  0  0  0  0
   -5.0877   -5.3605    0.0000 C   0  0  0  0  0  0  0  0  0  0  0  0
   -6.5549   -5.0487    0.0000 C   0  0  0  0  0  0  0  0  0  0  0  0
   -7.5586   -6.1634    0.0000 C   0  0  0  0  0  0  0  0  0  0  0  0
   -8.5623   -7.2781    0.0000 C   0  0  0  0  0  0  0  0  0  0  0  0
   -4.6242   -6.7871    0.0000 C   0  0  0  0  0  0  0  0  0  0  0  0
   -3.1570   -7.0990    0.0000 O   0  0  0  0  0  0  0  0  0  0  0  0
   -5.6279   -7.9018    0.0000 O   0  0  0  0  0  0  0  0  0  0  0  0
  2  1  1  6
  2  3  1  0
  3  4  1  0
  4  5  1  0
  4  6  1  0
  2  7  1  0
  7  8  2  0
  7  9  1  0
  9 10  1  0
 10 11  1  1
 11 12  1  0
 12 13  1  0
 12 14  1  0
 10 15  1  0
 15 16  2  0
 15 17  1  0
 17 18  1  0
 18 19  1  0
 19 20  1  0
 20 21  1  0
 21 22  1  6
 22 23  2  0
 22 24  1  0
 24 25  1  0
 25 26  1  0
 26 27  1  0
 27 28  1  0
 28 29  1  0
 29 30  1  0
 29 31  1  0
 24 32  1  0
 32 33  1  0
 33 34  2  0
 33 35  1  0
 35 36  1  0
 36 37  1  6
 37 38  1  0
 38 39  3  0
 36 40  1  0
 40 41  2  0
 40 42  1  0
 21 17  1  0
M  END
$$$$

     RDKit          2D

 43 43  0  0  0  0  0  0  0  0999 V2000
    1.2760    5.1962    0.0000 N   0  0  0  0  0  0  0  0  0  0  0  0
    0.5260    6.4952    0.0000 C   0  0  0  0  0  0  0  0  0  0  0  0
    2.7760    5.1962    0.0000 C   0  0  0  0  0  0  0  0  0  0  0  0
    3.5260    6.4952    0.0000 C   0  0  0  0  0  0  0  0  0  0  0  0
    2.7760    7.7942    0.0000 C   0  0  0  0  0  0  0  0  0  0  0  0
    3.5260    9.0933    0.0000 C   0  0  0  0  0  0  0  0  0  0  0  0
    1.2760    7.7942    0.0000 C   0  0  0  0  0  0  0  0  0  0  0  0
    3.5260    3.8971    0.0000 C   0  0  0  0  0  0  0  0  0  0  0  0
    5.0260    3.8971    0.0000 O   0  0  0  0  0  0  0  0  0  0  0  0
    2.7760    2.5981    0.0000 N   0  0  0  0  0  0  0  0  0  0  0  0
    3.5260    1.2990    0.0000 C   0  0  0  0  0  0  0  0  0  0  0  0
    5.0260    1.2990    0.0000 C   0  0  0  0  0  0  0  0  0  0  0  0
    5.7760    0.0000    0.0000 C   0  0  0  0  0  0  0  0  0  0  0  0
    7.2760    0.0000    0.0000 C   0  0  0  0  0  0  0  0  0  0  0  0
    5.0260   -1.2990    0.0000 C   0  0  0  0  0  0  0  0  0  0  0  0
    2.7760    0.0000    0.0000 C   0  0  0  0  0  0  0  0  0  0  0  0
    3.5260   -1.2990    0.0000 O   0  0  0  0  0  0  0  0  0  0  0  0
    1.2760    0.0000    0.0000 N   0  0  0  0  0  0  0  0  0  0  0  0
    0.3943    1.2135    0.0000 C   0  0  0  0  0  0  0  0  0  0  0  0
   -1.0323    0.7500    0.0000 C   0  0  0  0  0  0  0  0  0  0  0  0
   -1.0323   -0.7500    0.0000 C   0  0  0  0  0  0  0  0  0  0  0  0
    0.3943   -1.2135    0.0000 C   0  0  0  0  0  0  0  0  0  0  0  0
    0.8578   -2.6401    0.0000 C   0  0  0  0  0  0  0  0  0  0  0  0
    2.3250   -2.9520    0.0000 O   0  0  0  0  0  0  0  0  0  0  0  0
   -0.1459   -3.7548    0.0000 N   0  0  0  0  0  0  0  0  0  0  0  0
    0.3177   -5.1814    0.0000 C   0  0  0  0  0  0  0  0  0  0  0  0
   -0.6860   -6.2961    0.0000 C   0  0  0  0  0  0  0  0  0  0  0  0
   -0.2225   -7.7227    0.0000 C   0  0  0  0  0  0  0  0  0  0  0  0
   -1.2262   -8.8374    0.0000 O   0  0  0  0  0  0  0  0  0  0  0  0
   -0.7627  -10.2640    0.0000 C   0  0  0  0  0  0  0  0  0  0  0  0
   -1.7664  -11.3787    0.0000 C   0  0  0  0  0  0  0  0  0  0  0  0
    0.7045  -10.5759    0.0000 C   0  0  0  0  0  0  0  0  0  0  0  0
   -1.6131   -3.4430    0.0000 C   0  0  0  0  0  0  0  0  0  0  0  0
   -2.6168   -4.5577    0.0000 C   0  0  0  0  0  0  0  0  0  0  0  0
   -2.1533   -5.9843    0.0000 O   0  0  0  0  0  0  0  0  0  0  0  0
   -4.0840   -4.2458    0.0000 N   0  0  0  0  0  0  0  0  0  0  0  0
   -5.0877   -5.3605    0.0000 C   0  0  0  0  0  0  0  0  0  0  0  0
   -6.5549   -5.0487    0.0000 C   0  0  0  0  0  0  0  0  0  0  0  0
   -7.5586   -6.1634    0.0000 C   0  0  0  0  0  0  0  0  0  0  0  0
   -8.5623   -7.2781    0.0000 C   0  0  0  0  0  0  0  0  0  0  0  0
   -4.6242   -6.7871    0.0000 C   0  0  0  0  0  0  0  0  0  0  0  0
   -3.1570   -7.0990    0.0000 O   0  0  0  0  0  0  0  0  0  0  0  0
   -5.6279   -7.9018    0.0000 O   0  0  0  0  0  0  0  0  0  0  0  0
  1  2  1  0
  1  3  1  0
  3  4  1  1
  4  5  1  0
  5  6  1  0
  5  7  1  0
  3  8  1  0
  8  9  2  0
  8 10  1  0
 10 11  1  0
 11 12  1  1
 12 13  1  0
 13 14  1  0
 13 15  1  0
 11 16  1  0
 16 17  2  0
 16 18  1  0
 18 19  1  0
 19 20  1  0
 20 21  1  0
 21 22  1  0
 22 23  1  6
 23 24  2  0
 23 25  1  0
 25 26  1  0
 26 27  1  0
 27 28  1  0
 28 29  1  0
 29 30  1  0
 30 31  1  0
 30 32  1  0
 25 33  1  0
 33 34  1  0
 34 35  2  0
 34 36  1  0
 36 37  1  0
 37 38  1  6
 38 39  1  0
 39 40  3  0
 37 41  1  0
 41 42  2  0
 41 43  1  0
 22 18  1  0
M  END
$$$$

     RDKit          2D

 43 43  0  0  0  0  0  0  0  0999 V2000
    1.2760    5.1962    0.0000 N   0  0  0  0  0  0  0  0  0  0  0  0
    0.5260    6.4952    0.0000 C   0  0  0  0  0  0  0  0  0  0  0  0
    2.7760    5.1962    0.0000 C   0  0  0  0  0  0  0  0  0  0  0  0
    3.5260    6.4952    0.0000 C   0  0  0  0  0  0  0  0  0  0  0  0
    2.7760    7.7942    0.0000 C   0  0  0  0  0  0  0  0  0  0  0  0
    3.5260    9.0933    0.0000 C   0  0  0  0  0  0  0  0  0  0  0  0
    1.2760    7.7942    0.0000 C   0  0  0  0  0  0  0  0  0  0  0  0
    3.5260    3.8971    0.0000 C   0  0  0  0  0  0  0  0  0  0  0  0
    5.0260    3.8971    0.0000 O   0  0  0  0  0  0  0  0  0  0  0  0
    2.7760    2.5981    0.0000 N   0  0  0  0  0  0  0  0  0  0  0  0
    3.5260    1.2990    0.0000 C   0  0  0  0  0  0  0  0  0  0  0  0
    5.0260    1.2990    0.0000 C   0  0  0  0  0  0  0  0  0  0  0  0
    5.7760    0.0000    0.0000 C   0  0  0  0  0  0  0  0  0  0  0  0
    7.2760    0.0000    0.0000 C   0  0  0  0  0  0  0  0  0  0  0  0
    5.0260   -1.2990    0.0000 C   0  0  0  0  0  0  0  0  0  0  0  0
    2.7760    0.0000    0.0000 C   0  0  0  0  0  0  0  0  0  0  0  0
    3.5260   -1.2990    0.0000 O   0  0  0  0  0  0  0  0  0  0  0  0
    1.2760    0.0000    0.0000 N   0  0  0  0  0  0  0  0  0  0  0  0
    0.3943    1.2135    0.0000 C   0  0  0  0  0  0  0  0  0  0  0  0
   -1.0323    0.7500    0.0000 C   0  0  0  0  0  0  0  0  0  0  0  0
   -1.0323   -0.7500    0.0000 C   0  0  0  0  0  0  0  0  0  0  0  0
    0.3943   -1.2135    0.0000 C   0  0  0  0  0  0  0  0  0  0  0  0
    0.8578   -2.6401    0.0000 C   0  0  0  0  0  0  0  0  0  0  0  0
    2.3250   -2.9520    0.0000 O   0  0  0  0  0  0  0  0  0  0  0  0
   -0.1459   -3.7548    0.0000 N   0  0  0  0  0  0  0  0  0  0  0  0
    0.3177   -5.1814    0.0000 C   0  0  0  0  0  0  0  0  0  0  0  0
   -0.6860   -6.2961    0.0000 C   0  0  0  0  0  0  0  0  0  0  0  0
   -0.2225   -7.7227    0.0000 C   0  0  0  0  0  0  0  0  0  0  0  0
   -1.2262   -8.8374    0.0000 O   0  0  0  0  0  0  0  0  0  0  0  0
   -0.7627  -10.2640    0.0000 C   0  0  0  0  0  0  0  0  0  0  0  0
   -1.7664  -11.3787    0.0000 C   0  0  0  0  0  0  0  0  0  0  0  0
    0.7045  -10.5759    0.0000 C   0  0  0  0  0  0  0  0  0  0  0  0
   -1.6131   -3.4430    0.0000 C   0  0  0  0  0  0  0  0  0  0  0  0
   -2.6168   -4.5577    0.0000 C   0  0  0  0  0  0  0  0  0  0  0  0
   -2.1533   -5.9843    0.0000 O   0  0  0  0  0  0  0  0  0  0  0  0
   -4.0840   -4.2458    0.0000 N   0  0  0  0  0  0  0  0  0  0  0  0
   -5.0877   -5.3605    0.0000 C   0  0  0  0  0  0  0  0  0  0  0  0
   -6.5549   -5.0487    0.0000 C   0  0  0  0  0  0  0  0  0  0  0  0
   -7.5586   -6.1634    0.0000 C   0  0  0  0  0  0  0  0  0  0  0  0
   -8.5623   -7.2781    0.0000 C   0  0  0  0  0  0  0  0  0  0  0  0
   -4.6242   -6.7871    0.0000 C   0  0  0  0  0  0  0  0  0  0  0  0
   -3.1570   -7.0990    0.0000 O   0  0  0  0  0  0  0  0  0  0  0  0
   -5.6279   -7.9018    0.0000 O   0  0  0  0  0  0  0  0  0  0  0  0
  1  2  1  0
  1  3  1  0
  3  4  1  6
  4  5  1  0
  5  6  1  0
  5  7  1  0
  3  8  1  0
  8  9  2  0
  8 10  1  0
 10 11  1  0
 11 12  1  1
 12 13  1  0
 13 14  1  0
 13 15  1  0
 11 16  1  0
 16 17  2  0
 16 18  1  0
 18 19  1  0
 19 20  1  0
 20 21  1  0
 21 22  1  0
 22 23  1  6
 23 24  2  0
 23 25  1  0
 25 26  1  0
 26 27  1  0
 27 28  1  0
 28 29  1  0
 29 30  1  0
 30 31  1  0
 30 32  1  0
 25 33  1  0
 33 34  1  0
 34 35  2  0
 34 36  1  0
 36 37  1  0
 37 38  1  6
 38 39  1  0
 39 40  3  0
 37 41  1  0
 41 42  2  0
 41 43  1  0
 22 18  1  0
M  END
$$$$

     RDKit          2D

 42 42  0  0  0  0  0  0  0  0999 V2000
    1.2760    5.1962    0.0000 N   0  0  0  0  0  0  0  0  0  0  0  0
    2.7760    5.1962    0.0000 C   0  0  0  0  0  0  0  0  0  0  0  0
    3.5260    6.4952    0.0000 C   0  0  0  0  0  0  0  0  0  0  0  0
    2.7760    7.7942    0.0000 C   0  0  0  0  0  0  0  0  0  0  0  0
    3.5260    9.0933    0.0000 C   0  0  0  0  0  0  0  0  0  0  0  0
    1.2760    7.7942    0.0000 C   0  0  0  0  0  0  0  0  0  0  0  0
    3.5260    3.8971    0.0000 C   0  0  0  0  0  0  0  0  0  0  0  0
    5.0260    3.8971    0.0000 O   0  0  0  0  0  0  0  0  0  0  0  0
    2.7760    2.5981    0.0000 N   0  0  0  0  0  0  0  0  0  0  0  0
    3.5260    1.2990    0.0000 C   0  0  0  0  0  0  0  0  0  0  0  0
    5.0260    1.2990    0.0000 C   0  0  0  0  0  0  0  0  0  0  0  0
    5.7760    0.0000    0.0000 C   0  0  0  0  0  0  0  0  0  0  0  0
    7.2760    0.0000    0.0000 C   0  0  0  0  0  0  0  0  0  0  0  0
    5.0260   -1.2990    0.0000 C   0  0  0  0  0  0  0  0  0  0  0  0
    2.7760    0.0000    0.0000 C   0  0  0  0  0  0  0  0  0  0  0  0
    3.5260   -1.2990    0.0000 O   0  0  0  0  0  0  0  0  0  0  0  0
    1.2760    0.0000    0.0000 N   0  0  0  0  0  0  0  0  0  0  0  0
    0.3943    1.2135    0.0000 C   0  0  0  0  0  0  0  0  0  0  0  0
   -1.0323    0.7500    0.0000 C   0  0  0  0  0  0  0  0  0  0  0  0
   -1.0323   -0.7500    0.0000 C   0  0  0  0  0  0  0  0  0  0  0  0
    0.3943   -1.2135    0.0000 C   0  0  0  0  0  0  0  0  0  0  0  0
    0.8578   -2.6401    0.0000 C   0  0  0  0  0  0  0  0  0  0  0  0
    2.3250   -2.9520    0.0000 O   0  0  0  0  0  0  0  0  0  0  0  0
   -0.1459   -3.7548    0.0000 N   0  0  0  0  0  0  0  0  0  0  0  0
    0.3177   -5.1814    0.0000 C   0  0  0  0  0  0  0  0  0  0  0  0
   -0.6860   -6.2961    0.0000 C   0  0  0  0  0  0  0  0  0  0  0  0
   -0.2225   -7.7227    0.0000 C   0  0  0  0  0  0  0  0  0  0  0  0
   -1.2262   -8.8374    0.0000 O   0  0  0  0  0  0  0  0  0  0  0  0
   -0.7627  -10.2640    0.0000 C   0  0  0  0  0  0  0  0  0  0  0  0
   -1.7664  -11.3787    0.0000 C   0  0  0  0  0  0  0  0  0  0  0  0
    0.7045  -10.5759    0.0000 C   0  0  0  0  0  0  0  0  0  0  0  0
   -1.6131   -3.4430    0.0000 C   0  0  0  0  0  0  0  0  0  0  0  0
   -2.6168   -4.5577    0.0000 C   0  0  0  0  0  0  0  0  0  0  0  0
   -2.1533   -5.9843    0.0000 O   0  0  0  0  0  0  0  0  0  0  0  0
   -4.0840   -4.2458    0.0000 N   0  0  0  0  0  0  0  0  0  0  0  0
   -5.0877   -5.3605    0.0000 C   0  0  0  0  0  0  0  0  0  0  0  0
   -6.5549   -5.0487    0.0000 C   0  0  0  0  0  0  0  0  0  0  0  0
   -7.5586   -6.1634    0.0000 C   0  0  0  0  0  0  0  0  0  0  0  0
   -8.5623   -7.2781    0.0000 C   0  0  0  0  0  0  0  0  0  0  0  0
   -4.6242   -6.7871    0.0000 C   0  0  0  0  0  0  0  0  0  0  0  0
   -3.1570   -7.0990    0.0000 O   0  0  0  0  0  0  0  0  0  0  0  0
   -5.6279   -7.9018    0.0000 O   0  0  0  0  0  0  0  0  0  0  0  0
  2  1  1  1
  2  3  1  0
  3  4  1  0
  4  5  1  0
  4  6  1  0
  2  7  1  0
  7  8  2  0
  7  9  1  0
  9 10  1  0
 10 11  1  6
 11 12  1  0
 12 13  1  0
 12 14  1  0
 10 15  1  0
 15 16  2  0
 15 17  1  0
 17 18  1  0
 18 19  1  0
 19 20  1  0
 20 21  1  0
 21 22  1  6
 22 23  2  0
 22 24  1  0
 24 25  1  0
 25 26  1  0
 26 27  1  0
 27 28  1  0
 28 29  1  0
 29 30  1  0
 29 31  1  0
 24 32  1  0
 32 33  1  0
 33 34  2  0
 33 35  1  0
 35 36  1  0
 36 37  1  6
 37 38  1  0
 38 39  3  0
 36 40  1  0
 40 41  2  0
 40 42  1  0
 21 17  1  0
M  END
$$$$

     RDKit          2D

 42 42  0  0  0  0  0  0  0  0999 V2000
    1.2760    5.1962    0.0000 N   0  0  0  0  0  0  0  0  0  0  0  0
    2.7760    5.1962    0.0000 C   0  0  0  0  0  0  0  0  0  0  0  0
    3.5260    6.4952    0.0000 C   0  0  0  0  0  0  0  0  0  0  0  0
    2.7760    7.7942    0.0000 C   0  0  0  0  0  0  0  0  0  0  0  0
    3.5260    9.0933    0.0000 C   0  0  0  0  0  0  0  0  0  0  0  0
    1.2760    7.7942    0.0000 C   0  0  0  0  0  0  0  0  0  0  0  0
    3.5260    3.8971    0.0000 C   0  0  0  0  0  0  0  0  0  0  0  0
    5.0260    3.8971    0.0000 O   0  0  0  0  0  0  0  0  0  0  0  0
    2.7760    2.5981    0.0000 N   0  0  0  0  0  0  0  0  0  0  0  0
    3.5260    1.2990    0.0000 C   0  0  0  0  0  0  0  0  0  0  0  0
    5.0260    1.2990    0.0000 C   0  0  0  0  0  0  0  0  0  0  0  0
    5.7760    0.0000    0.0000 C   0  0  0  0  0  0  0  0  0  0  0  0
    7.2760    0.0000    0.0000 C   0  0  0  0  0  0  0  0  0  0  0  0
    5.0260   -1.2990    0.0000 C   0  0  0  0  0  0  0  0  0  0  0  0
    2.7760    0.0000    0.0000 C   0  0  0  0  0  0  0  0  0  0  0  0
    3.5260   -1.2990    0.0000 O   0  0  0  0  0  0  0  0  0  0  0  0
    1.2760    0.0000    0.0000 N   0  0  0  0  0  0  0  0  0  0  0  0
    0.3943    1.2135    0.0000 C   0  0  0  0  0  0  0  0  0  0  0  0
   -1.0323    0.7500    0.0000 C   0  0  0  0  0  0  0  0  0  0  0  0
   -1.0323   -0.7500    0.0000 C   0  0  0  0  0  0  0  0  0  0  0  0
    0.3943   -1.2135    0.0000 C   0  0  0  0  0  0  0  0  0  0  0  0
    0.8578   -2.6401    0.0000 C   0  0  0  0  0  0  0  0  0  0  0  0
    2.3250   -2.9520    0.0000 O   0  0  0  0  0  0  0  0  0  0  0  0
   -0.1459   -3.7548    0.0000 N   0  0  0  0  0  0  0  0  0  0  0  0
    0.3177   -5.1814    0.0000 C   0  0  0  0  0  0  0  0  0  0  0  0
   -0.6860   -6.2961    0.0000 C   0  0  0  0  0  0  0  0  0  0  0  0
   -0.2225   -7.7227    0.0000 C   0  0  0  0  0  0  0  0  0  0  0  0
   -1.2262   -8.8374    0.0000 O   0  0  0  0  0  0  0  0  0  0  0  0
   -0.7627  -10.2640    0.0000 C   0  0  0  0  0  0  0  0  0  0  0  0
   -1.7664  -11.3787    0.0000 C   0  0  0  0  0  0  0  0  0  0  0  0
    0.7045  -10.5759    0.0000 C   0  0  0  0  0  0  0  0  0  0  0  0
   -1.6131   -3.4430    0.0000 C   0  0  0  0  0  0  0  0  0  0  0  0
   -2.6168   -4.5577    0.0000 C   0  0  0  0  0  0  0  0  0  0  0  0
   -2.1533   -5.9843    0.0000 O   0  0  0  0  0  0  0  0  0  0  0  0
   -4.0840   -4.2458    0.0000 N   0  0  0  0  0  0  0  0  0  0  0  0
   -5.0877   -5.3605    0.0000 C   0  0  0  0  0  0  0  0  0  0  0  0
   -6.5549   -5.0487    0.0000 C   0  0  0  0  0  0  0  0  0  0  0  0
   -7.5586   -6.1634    0.0000 C   0  0  0  0  0  0  0  0  0  0  0  0
   -8.5623   -7.2781    0.0000 C   0  0  0  0  0  0  0  0  0  0  0  0
   -4.6242   -6.7871    0.0000 C   0  0  0  0  0  0  0  0  0  0  0  0
   -3.1570   -7.0990    0.0000 O   0  0  0  0  0  0  0  0  0  0  0  0
   -5.6279   -7.9018    0.0000 O   0  0  0  0  0  0  0  0  0  0  0  0
  2  1  1  6
  2  3  1  0
  3  4  1  0
  4  5  1  0
  4  6  1  0
  2  7  1  0
  7  8  2  0
  7  9  1  0
  9 10  1  0
 10 11  1  6
 11 12  1  0
 12 13  1  0
 12 14  1  0
 10 15  1  0
 15 16  2  0
 15 17  1  0
 17 18  1  0
 18 19  1  0
 19 20  1  0
 20 21  1  0
 21 22  1  6
 22 23  2  0
 22 24  1  0
 24 25  1  0
 25 26  1  0
 26 27  1  0
 27 28  1  0
 28 29  1  0
 29 30  1  0
 29 31  1  0
 24 32  1  0
 32 33  1  0
 33 34  2  0
 33 35  1  0
 35 36  1  0
 36 37  1  6
 37 38  1  0
 38 39  3  0
 36 40  1  0
 40 41  2  0
 40 42  1  0
 21 17  1  0
M  END
$$$$

     RDKit          2D

 43 43  0  0  0  0  0  0  0  0999 V2000
    1.2760    5.1962    0.0000 N   0  0  0  0  0  0  0  0  0  0  0  0
    0.5260    6.4952    0.0000 C   0  0  0  0  0  0  0  0  0  0  0  0
    2.7760    5.1962    0.0000 C   0  0  0  0  0  0  0  0  0  0  0  0
    3.5260    6.4952    0.0000 C   0  0  0  0  0  0  0  0  0  0  0  0
    2.7760    7.7942    0.0000 C   0  0  0  0  0  0  0  0  0  0  0  0
    3.5260    9.0933    0.0000 C   0  0  0  0  0  0  0  0  0  0  0  0
    1.2760    7.7942    0.0000 C   0  0  0  0  0  0  0  0  0  0  0  0
    3.5260    3.8971    0.0000 C   0  0  0  0  0  0  0  0  0  0  0  0
    5.0260    3.8971    0.0000 O   0  0  0  0  0  0  0  0  0  0  0  0
    2.7760    2.5981    0.0000 N   0  0  0  0  0  0  0  0  0  0  0  0
    3.5260    1.2990    0.0000 C   0  0  0  0  0  0  0  0  0  0  0  0
    5.0260    1.2990    0.0000 C   0  0  0  0  0  0  0  0  0  0  0  0
    5.7760    0.0000    0.0000 C   0  0  0  0  0  0  0  0  0  0  0  0
    7.2760    0.0000    0.0000 C   0  0  0  0  0  0  0  0  0  0  0  0
    5.0260   -1.2990    0.0000 C   0  0  0  0  0  0  0  0  0  0  0  0
    2.7760    0.0000    0.0000 C   0  0  0  0  0  0  0  0  0  0  0  0
    3.5260   -1.2990    0.0000 O   0  0  0  0  0  0  0  0  0  0  0  0
    1.2760    0.0000    0.0000 N   0  0  0  0  0  0  0  0  0  0  0  0
    0.3943    1.2135    0.0000 C   0  0  0  0  0  0  0  0  0  0  0  0
   -1.0323    0.7500    0.0000 C   0  0  0  0  0  0  0  0  0  0  0  0
   -1.0323   -0.7500    0.0000 C   0  0  0  0  0  0  0  0  0  0  0  0
    0.3943   -1.2135    0.0000 C   0  0  0  0  0  0  0  0  0  0  0  0
    0.8578   -2.6401    0.0000 C   0  0  0  0  0  0  0  0  0  0  0  0
    2.3250   -2.9520    0.0000 O   0  0  0  0  0  0  0  0  0  0  0  0
   -0.1459   -3.7548    0.0000 N   0  0  0  0  0  0  0  0  0  0  0  0
    0.3177   -5.1814    0.0000 C   0  0  0  0  0  0  0  0  0  0  0  0
   -0.6860   -6.2961    0.0000 C   0  0  0  0  0  0  0  0  0  0  0  0
   -0.2225   -7.7227    0.0000 C   0  0  0  0  0  0  0  0  0  0  0  0
   -1.2262   -8.8374    0.0000 O   0  0  0  0  0  0  0  0  0  0  0  0
   -0.7627  -10.2640    0.0000 C   0  0  0  0  0  0  0  0  0  0  0  0
   -1.7664  -11.3787    0.0000 C   0  0  0  0  0  0  0  0  0  0  0  0
    0.7045  -10.5759    0.0000 C   0  0  0  0  0  0  0  0  0  0  0  0
   -1.6131   -3.4430    0.0000 C   0  0  0  0  0  0  0  0  0  0  0  0
   -2.6168   -4.5577    0.0000 C   0  0  0  0  0  0  0  0  0  0  0  0
   -2.1533   -5.9843    0.0000 O   0  0  0  0  0  0  0  0  0  0  0  0
   -4.0840   -4.2458    0.0000 N   0  0  0  0  0  0  0  0  0  0  0  0
   -5.0877   -5.3605    0.0000 C   0  0  0  0  0  0  0  0  0  0  0  0
   -6.5549   -5.0487    0.0000 C   0  0  0  0  0  0  0  0  0  0  0  0
   -7.5586   -6.1634    0.0000 C   0  0  0  0  0  0  0  0  0  0  0  0
   -8.5623   -7.2781    0.0000 C   0  0  0  0  0  0  0  0  0  0  0  0
   -4.6242   -6.7871    0.0000 C   0  0  0  0  0  0  0  0  0  0  0  0
   -3.1570   -7.0990    0.0000 O   0  0  0  0  0  0  0  0  0  0  0  0
   -5.6279   -7.9018    0.0000 O   0  0  0  0  0  0  0  0  0  0  0  0
  1  2  1  0
  1  3  1  0
  3  4  1  1
  4  5  1  0
  5  6  1  0
  5  7  1  0
  3  8  1  0
  8  9  2  0
  8 10  1  0
 10 11  1  0
 11 12  1  6
 12 13  1  0
 13 14  1  0
 13 15  1  0
 11 16  1  0
 16 17  2  0
 16 18  1  0
 18 19  1  0
 19 20  1  0
 20 21  1  0
 21 22  1  0
 22 23  1  6
 23 24  2  0
 23 25  1  0
 25 26  1  0
 26 27  1  0
 27 28  1  0
 28 29  1  0
 29 30  1  0
 30 31  1  0
 30 32  1  0
 25 33  1  0
 33 34  1  0
 34 35  2  0
 34 36  1  0
 36 37  1  0
 37 38  1  6
 38 39  1  0
 39 40  3  0
 37 41  1  0
 41 42  2  0
 41 43  1  0
 22 18  1  0
M  END
$$$$

     RDKit          2D

 43 43  0  0  0  0  0  0  0  0999 V2000
    1.2760    5.1962    0.0000 N   0  0  0  0  0  0  0  0  0  0  0  0
    0.5260    6.4952    0.0000 C   0  0  0  0  0  0  0  0  0  0  0  0
    2.7760    5.1962    0.0000 C   0  0  0  0  0  0  0  0  0  0  0  0
    3.5260    6.4952    0.0000 C   0  0  0  0  0  0  0  0  0  0  0  0
    2.7760    7.7942    0.0000 C   0  0  0  0  0  0  0  0  0  0  0  0
    3.5260    9.0933    0.0000 C   0  0  0  0  0  0  0  0  0  0  0  0
    1.2760    7.7942    0.0000 C   0  0  0  0  0  0  0  0  0  0  0  0
    3.5260    3.8971    0.0000 C   0  0  0  0  0  0  0  0  0  0  0  0
    5.0260    3.8971    0.0000 O   0  0  0  0  0  0  0  0  0  0  0  0
    2.7760    2.5981    0.0000 N   0  0  0  0  0  0  0  0  0  0  0  0
    3.5260    1.2990    0.0000 C   0  0  0  0  0  0  0  0  0  0  0  0
    5.0260    1.2990    0.0000 C   0  0  0  0  0  0  0  0  0  0  0  0
    5.7760    0.0000    0.0000 C   0  0  0  0  0  0  0  0  0  0  0  0
    7.2760    0.0000    0.0000 C   0  0  0  0  0  0  0  0  0  0  0  0
    5.0260   -1.2990    0.0000 C   0  0  0  0  0  0  0  0  0  0  0  0
    2.7760    0.0000    0.0000 C   0  0  0  0  0  0  0  0  0  0  0  0
    3.5260   -1.2990    0.0000 O   0  0  0  0  0  0  0  0  0  0  0  0
    1.2760    0.0000    0.0000 N   0  0  0  0  0  0  0  0  0  0  0  0
    0.3943    1.2135    0.0000 C   0  0  0  0  0  0  0  0  0  0  0  0
   -1.0323    0.7500    0.0000 C   0  0  0  0  0  0  0  0  0  0  0  0
   -1.0323   -0.7500    0.0000 C   0  0  0  0  0  0  0  0  0  0  0  0
    0.3943   -1.2135    0.0000 C   0  0  0  0  0  0  0  0  0  0  0  0
    0.8578   -2.6401    0.0000 C   0  0  0  0  0  0  0  0  0  0  0  0
    2.3250   -2.9520    0.0000 O   0  0  0  0  0  0  0  0  0  0  0  0
   -0.1459   -3.7548    0.0000 N   0  0  0  0  0  0  0  0  0  0  0  0
    0.3177   -5.1814    0.0000 C   0  0  0  0  0  0  0  0  0  0  0  0
   -0.6860   -6.2961    0.0000 C   0  0  0  0  0  0  0  0  0  0  0  0
   -0.2225   -7.7227    0.0000 C   0  0  0  0  0  0  0  0  0  0  0  0
   -1.2262   -8.8374    0.0000 O   0  0  0  0  0  0  0  0  0  0  0  0
   -0.7627  -10.2640    0.0000 C   0  0  0  0  0  0  0  0  0  0  0  0
   -1.7664  -11.3787    0.0000 C   0  0  0  0  0  0  0  0  0  0  0  0
    0.7045  -10.5759    0.0000 C   0  0  0  0  0  0  0  0  0  0  0  0
   -1.6131   -3.4430    0.0000 C   0  0  0  0  0  0  0  0  0  0  0  0
   -2.6168   -4.5577    0.0000 C   0  0  0  0  0  0  0  0  0  0  0  0
   -2.1533   -5.9843    0.0000 O   0  0  0  0  0  0  0  0  0  0  0  0
   -4.0840   -4.2458    0.0000 N   0  0  0  0  0  0  0  0  0  0  0  0
   -5.0877   -5.3605    0.0000 C   0  0  0  0  0  0  0  0  0  0  0  0
   -6.5549   -5.0487    0.0000 C   0  0  0  0  0  0  0  0  0  0  0  0
   -7.5586   -6.1634    0.0000 C   0  0  0  0  0  0  0  0  0  0  0  0
   -8.5623   -7.2781    0.0000 C   0  0  0  0  0  0  0  0  0  0  0  0
   -4.6242   -6.7871    0.0000 C   0  0  0  0  0  0  0  0  0  0  0  0
   -3.1570   -7.0990    0.0000 O   0  0  0  0  0  0  0  0  0  0  0  0
   -5.6279   -7.9018    0.0000 O   0  0  0  0  0  0  0  0  0  0  0  0
  1  2  1  0
  1  3  1  0
  3  4  1  6
  4  5  1  0
  5  6  1  0
  5  7  1  0
  3  8  1  0
  8  9  2  0
  8 10  1  0
 10 11  1  0
 11 12  1  6
 12 13  1  0
 13 14  1  0
 13 15  1  0
 11 16  1  0
 16 17  2  0
 16 18  1  0
 18 19  1  0
 19 20  1  0
 20 21  1  0
 21 22  1  0
 22 23  1  6
 23 24  2  0
 23 25  1  0
 25 26  1  0
 26 27  1  0
 27 28  1  0
 28 29  1  0
 29 30  1  0
 30 31  1  0
 30 32  1  0
 25 33  1  0
 33 34  1  0
 34 35  2  0
 34 36  1  0
 36 37  1  0
 37 38  1  6
 38 39  1  0
 39 40  3  0
 37 41  1  0
 41 42  2  0
 41 43  1  0
 22 18  1  0
M  END
$$$$

     RDKit          2D

 43 43  0  0  0  0  0  0  0  0999 V2000
    8.0260    1.2990    0.0000 N   0  0  0  0  0  0  0  0  0  0  0  0
    7.2760    0.0000    0.0000 C   0  0  0  0  0  0  0  0  0  0  0  0
    8.0260   -1.2990    0.0000 C   0  0  0  0  0  0  0  0  0  0  0  0
    9.5260   -1.2990    0.0000 C   0  0  0  0  0  0  0  0  0  0  0  0
   10.2760   -2.5981    0.0000 C   0  0  0  0  0  0  0  0  0  0  0  0
   10.2760    0.0000    0.0000 C   0  0  0  0  0  0  0  0  0  0  0  0
    5.7760    0.0000    0.0000 C   0  0  0  0  0  0  0  0  0  0  0  0
    5.0260   -1.2990    0.0000 O   0  0  0  0  0  0  0  0  0  0  0  0
    5.0260    1.2990    0.0000 N   0  0  0  0  0  0  0  0  0  0  0  0
    5.7760    2.5981    0.0000 C   0  0  0  0  0  0  0  0  0  0  0  0
    3.5260    1.2990    0.0000 C   0  0  0  0  0  0  0  0  0  0  0  0
    2.7760    2.5981    0.0000 C   0  0  0  0  0  0  0  0  0  0  0  0
    3.5260    3.8971    0.0000 C   0  0  0  0  0  0  0  0  0  0  0  0
    2.7760    5.1962    0.0000 C   0  0  0  0  0  0  0  0  0  0  0  0
    5.0260    3.8971    0.0000 C   0  0  0  0  0  0  0  0  0  0  0  0
    2.7760    0.0000    0.0000 C   0  0  0  0  0  0  0  0  0  0  0  0
    3.5260   -1.2990    0.0000 O   0  0  0  0  0  0  0  0  0  0  0  0
    1.2760    0.0000    0.0000 N   0  0  0  0  0  0  0  0  0  0  0  0
    0.3943    1.2135    0.0000 C   0  0  0  0  0  0  0  0  0  0  0  0
   -1.0323    0.7500    0.0000 C   0  0  0  0  0  0  0  0  0  0  0  0
   -1.0323   -0.7500    0.0000 C   0  0  0  0  0  0  0  0  0  0  0  0
    0.3943   -1.2135    0.0000 C   0  0  0  0  0  0  0  0  0  0  0  0
    0.8578   -2.6401    0.0000 C   0  0  0  0  0  0  0  0  0  0  0  0
    2.3250   -2.9520    0.0000 O   0  0  0  0  0  0  0  0  0  0  0  0
   -0.1459   -3.7548    0.0000 N   0  0  0  0  0  0  0  0  0  0  0  0
    0.3177   -5.1814    0.0000 C   0  0  0  0  0  0  0  0  0  0  0  0
   -0.6860   -6.2961    0.0000 C   0  0  0  0  0  0  0  0  0  0  0  0
   -0.2225   -7.7227    0.0000 C   0  0  0  0  0  0  0  0  0  0  0  0
   -1.2262   -8.8374    0.0000 O   0  0  0  0  0  0  0  0  0  0  0  0
   -0.7627  -10.2640    0.0000 C   0  0  0  0  0  0  0  0  0  0  0  0
   -1.7664  -11.3787    0.0000 C   0  0  0  0  0  0  0  0  0  0  0  0
    0.7045  -10.5759    0.0000 C   0  0  0  0  0  0  0  0  0  0  0  0
   -1.6131   -3.4430    0.0000 C   0  0  0  0  0  0  0  0  0  0  0  0
   -2.6168   -4.5577    0.0000 C   0  0  0  0  0  0  0  0  0  0  0  0
   -2.1533   -5.9843    0.0000 O   0  0  0  0  0  0  0  0  0  0  0  0
   -4.0840   -4.2458    0.0000 N   0  0  0  0  0  0  0  0  0  0  0  0
   -5.0877   -5.3605    0.0000 C   0  0  0  0  0  0  0  0  0  0  0  0
   -6.5549   -5.0487    0.0000 C   0  0  0  0  0  0  0  0  0  0  0  0
   -7.5586   -6.1634    0.0000 C   0  0  0  0  0  0  0  0  0  0  0  0
   -8.5623   -7.2781    0.0000 C   0  0  0  0  0  0  0  0  0  0  0  0
   -4.6242   -6.7871    0.0000 C   0  0  0  0  0  0  0  0  0  0  0  0
   -3.1570   -7.0990    0.0000 O   0  0  0  0  0  0  0  0  0  0  0  0
   -5.6279   -7.9018    0.0000 O   0  0  0  0  0  0  0  0  0  0  0  0
  2  1  1  1
  2  3  1  0
  3  4  1  0
  4  5  1  0
  4  6  1  0
  2  7  1  0
  7  8  2  0
  7  9  1  0
  9 10  1  0
  9 11  1  0
 11 12  1  6
 12 13  1  0
 13 14  1  0
 13 15  1  0
 11 16  1  0
 16 17  2  0
 16 18  1  0
 18 19  1  0
 19 20  1  0
 20 21  1  0
 21 22  1  0
 22 23  1  6
 23 24  2  0
 23 25  1  0
 25 26  1  0
 26 27  1  0
 27 28  1  0
 28 29  1  0
 29 30  1  0
 30 31  1  0
 30 32  1  0
 25 33  1  0
 33 34  1  0
 34 35  2  0
 34 36  1  0
 36 37  1  0
 37 38  1  6
 38 39  1  0
 39 40  3  0
 37 41  1  0
 41 42  2  0
 41 43  1  0
 22 18  1  0
M  END
$$$$

     RDKit          2D

 43 43  0  0  0  0  0  0  0  0999 V2000
    8.0260    1.2990    0.0000 N   0  0  0  0  0  0  0  0  0  0  0  0
    7.2760    0.0000    0.0000 C   0  0  0  0  0  0  0  0  0  0  0  0
    8.0260   -1.2990    0.0000 C   0  0  0  0  0  0  0  0  0  0  0  0
    9.5260   -1.2990    0.0000 C   0  0  0  0  0  0  0  0  0  0  0  0
   10.2760   -2.5981    0.0000 C   0  0  0  0  0  0  0  0  0  0  0  0
   10.2760    0.0000    0.0000 C   0  0  0  0  0  0  0  0  0  0  0  0
    5.7760    0.0000    0.0000 C   0  0  0  0  0  0  0  0  0  0  0  0
    5.0260   -1.2990    0.0000 O   0  0  0  0  0  0  0  0  0  0  0  0
    5.0260    1.2990    0.0000 N   0  0  0  0  0  0  0  0  0  0  0  0
    5.7760    2.5981    0.0000 C   0  0  0  0  0  0  0  0  0  0  0  0
    3.5260    1.2990    0.0000 C   0  0  0  0  0  0  0  0  0  0  0  0
    2.7760    2.5981    0.0000 C   0  0  0  0  0  0  0  0  0  0  0  0
    3.5260    3.8971    0.0000 C   0  0  0  0  0  0  0  0  0  0  0  0
    2.7760    5.1962    0.0000 C   0  0  0  0  0  0  0  0  0  0  0  0
    5.0260    3.8971    0.0000 C   0  0  0  0  0  0  0  0  0  0  0  0
    2.7760    0.0000    0.0000 C   0  0  0  0  0  0  0  0  0  0  0  0
    3.5260   -1.2990    0.0000 O   0  0  0  0  0  0  0  0  0  0  0  0
    1.2760    0.0000    0.0000 N   0  0  0  0  0  0  0  0  0  0  0  0
    0.3943    1.2135    0.0000 C   0  0  0  0  0  0  0  0  0  0  0  0
   -1.0323    0.7500    0.0000 C   0  0  0  0  0  0  0  0  0  0  0  0
   -1.0323   -0.7500    0.0000 C   0  0  0  0  0  0  0  0  0  0  0  0
    0.3943   -1.2135    0.0000 C   0  0  0  0  0  0  0  0  0  0  0  0
    0.8578   -2.6401    0.0000 C   0  0  0  0  0  0  0  0  0  0  0  0
    2.3250   -2.9520    0.0000 O   0  0  0  0  0  0  0  0  0  0  0  0
   -0.1459   -3.7548    0.0000 N   0  0  0  0  0  0  0  0  0  0  0  0
    0.3177   -5.1814    0.0000 C   0  0  0  0  0  0  0  0  0  0  0  0
   -0.6860   -6.2961    0.0000 C   0  0  0  0  0  0  0  0  0  0  0  0
   -0.2225   -7.7227    0.0000 C   0  0  0  0  0  0  0  0  0  0  0  0
   -1.2262   -8.8374    0.0000 O   0  0  0  0  0  0  0  0  0  0  0  0
   -0.7627  -10.2640    0.0000 C   0  0  0  0  0  0  0  0  0  0  0  0
   -1.7664  -11.3787    0.0000 C   0  0  0  0  0  0  0  0  0  0  0  0
    0.7045  -10.5759    0.0000 C   0  0  0  0  0  0  0  0  0  0  0  0
   -1.6131   -3.4430    0.0000 C   0  0  0  0  0  0  0  0  0  0  0  0
   -2.6168   -4.5577    0.0000 C   0  0  0  0  0  0  0  0  0  0  0  0
   -2.1533   -5.9843    0.0000 O   0  0  0  0  0  0  0  0  0  0  0  0
   -4.0840   -4.2458    0.0000 N   0  0  0  0  0  0  0  0  0  0  0  0
   -5.0877   -5.3605    0.0000 C   0  0  0  0  0  0  0  0  0  0  0  0
   -6.5549   -5.0487    0.0000 C   0  0  0  0  0  0  0  0  0  0  0  0
   -7.5586   -6.1634    0.0000 C   0  0  0  0  0  0  0  0  0  0  0  0
   -8.5623   -7.2781    0.0000 C   0  0  0  0  0  0  0  0  0  0  0  0
   -4.6242   -6.7871    0.0000 C   0  0  0  0  0  0  0  0  0  0  0  0
   -3.1570   -7.0990    0.0000 O   0  0  0  0  0  0  0  0  0  0  0  0
   -5.6279   -7.9018    0.0000 O   0  0  0  0  0  0  0  0  0  0  0  0
  2  1  1  6
  2  3  1  0
  3  4  1  0
  4  5  1  0
  4  6  1  0
  2  7  1  0
  7  8  2  0
  7  9  1  0
  9 10  1  0
  9 11  1  0
 11 12  1  6
 12 13  1  0
 13 14  1  0
 13 15  1  0
 11 16  1  0
 16 17  2  0
 16 18  1  0
 18 19  1  0
 19 20  1  0
 20 21  1  0
 21 22  1  0
 22 23  1  6
 23 24  2  0
 23 25  1  0
 25 26  1  0
 26 27  1  0
 27 28  1  0
 28 29  1  0
 29 30  1  0
 30 31  1  0
 30 32  1  0
 25 33  1  0
 33 34  1  0
 34 35  2  0
 34 36  1  0
 36 37  1  0
 37 38  1  6
 38 39  1  0
 39 40  3  0
 37 41  1  0
 41 42  2  0
 41 43  1  0
 22 18  1  0
M  END
$$$$

     RDKit          2D

 29 29  0  0  0  0  0  0  0  0999 V2000
    7.5000   -5.1962    0.0000 N   0  0  0  0  0  0  0  0  0  0  0  0
    6.0000   -5.1962    0.0000 C   0  0  0  0  0  0  0  0  0  0  0  0
    5.2500   -6.4952    0.0000 C   0  0  0  0  0  0  0  0  0  0  0  0
    6.0000   -7.7942    0.0000 C   0  0  0  0  0  0  0  0  0  0  0  0
    5.2500   -9.0933    0.0000 C   0  0  0  0  0  0  0  0  0  0  0  0
    7.5000   -7.7942    0.0000 C   0  0  0  0  0  0  0  0  0  0  0  0
    5.2500   -3.8971    0.0000 C   0  0  0  0  0  0  0  0  0  0  0  0
    3.7500   -3.8971    0.0000 O   0  0  0  0  0  0  0  0  0  0  0  0
    6.0000   -2.5981    0.0000 N   0  0  0  0  0  0  0  0  0  0  0  0
    5.2500   -1.2990    0.0000 C   0  0  0  0  0  0  0  0  0  0  0  0
    3.7500   -1.2990    0.0000 C   0  0  0  0  0  0  0  0  0  0  0  0
    3.0000    0.0000    0.0000 O   0  0  0  0  0  0  0  0  0  0  0  0
    1.5000    0.0000    0.0000 C   0  0  0  0  0  0  0  0  0  0  0  0
    0.7500   -1.2990    0.0000 C   0  0  0  0  0  0  0  0  0  0  0  0
   -0.7500   -1.2990    0.0000 C   0  0  0  0  0  0  0  0  0  0  0  0
   -1.5000    0.0000    0.0000 C   0  0  0  0  0  0  0  0  0  0  0  0
   -0.7500    1.2990    0.0000 C   0  0  0  0  0  0  0  0  0  0  0  0
    0.7500    1.2990    0.0000 C   0  0  0  0  0  0  0  0  0  0  0  0
    7.5000   -2.5981    0.0000 C   0  0  0  0  0  0  0  0  0  0  0  0
    8.2500   -1.2990    0.0000 C   0  0  0  0  0  0  0  0  0  0  0  0
    7.5000    0.0000    0.0000 O   0  0  0  0  0  0  0  0  0  0  0  0
    9.7500   -1.2990    0.0000 N   0  0  0  0  0  0  0  0  0  0  0  0
   10.5000   -0.0000    0.0000 C   0  0  0  0  0  0  0  0  0  0  0  0
   12.0000    0.0000    0.0000 C   0  0  0  0  0  0  0  0  0  0  0  0
   12.7500    1.2990    0.0000 C   0  0  0  0  0  0  0  0  0  0  0  0
   13.5000    2.5981    0.0000 C   0  0  0  0  0  0  0  0  0  0  0  0
    9.7500    1.2990    0.0000 C   0  0  0  0  0  0  0  0  0  0  0  0
    8.2500    1.2990    0.0000 O   0  0  0  0  0  0  0  0  0  0  0  0
   10.5000    2.5981    0.0000 O   0  0  0  0  0  0  0  0  0  0  0  0
  2  1  1  1
  2  3  1  0
  3  4  1  0
  4  5  1  0
  4  6  1  0
  2  7  1  0
  7  8  2  0
  7  9  1  0
  9 10  1  0
 10 11  1  0
 11 12  1  0
 12 13  1  0
 13 14  2  0
 14 15  1  0
 15 16  2  0
 16 17  1  0
 17 18  2  0
  9 19  1  0
 19 20  1  0
 20 21  2  0
 20 22  1  0
 22 23  1  0
 23 24  1  6
 24 25  1  0
 25 26  3  0
 23 27  1  0
 27 28  2  0
 27 29  1  0
 18 13  1  0
M  END
$$$$

     RDKit          2D

 29 29  0  0  0  0  0  0  0  0999 V2000
    7.5000   -5.1962    0.0000 N   0  0  0  0  0  0  0  0  0  0  0  0
    6.0000   -5.1962    0.0000 C   0  0  0  0  0  0  0  0  0  0  0  0
    5.2500   -6.4952    0.0000 C   0  0  0  0  0  0  0  0  0  0  0  0
    6.0000   -7.7942    0.0000 C   0  0  0  0  0  0  0  0  0  0  0  0
    5.2500   -9.0933    0.0000 C   0  0  0  0  0  0  0  0  0  0  0  0
    7.5000   -7.7942    0.0000 C   0  0  0  0  0  0  0  0  0  0  0  0
    5.2500   -3.8971    0.0000 C   0  0  0  0  0  0  0  0  0  0  0  0
    3.7500   -3.8971    0.0000 O   0  0  0  0  0  0  0  0  0  0  0  0
    6.0000   -2.5981    0.0000 N   0  0  0  0  0  0  0  0  0  0  0  0
    5.2500   -1.2990    0.0000 C   0  0  0  0  0  0  0  0  0  0  0  0
    3.7500   -1.2990    0.0000 C   0  0  0  0  0  0  0  0  0  0  0  0
    3.0000    0.0000    0.0000 O   0  0  0  0  0  0  0  0  0  0  0  0
    1.5000    0.0000    0.0000 C   0  0  0  0  0  0  0  0  0  0  0  0
    0.7500   -1.2990    0.0000 C   0  0  0  0  0  0  0  0  0  0  0  0
   -0.7500   -1.2990    0.0000 C   0  0  0  0  0  0  0  0  0  0  0  0
   -1.5000    0.0000    0.0000 C   0  0  0  0  0  0  0  0  0  0  0  0
   -0.7500    1.2990    0.0000 C   0  0  0  0  0  0  0  0  0  0  0  0
    0.7500    1.2990    0.0000 C   0  0  0  0  0  0  0  0  0  0  0  0
    7.5000   -2.5981    0.0000 C   0  0  0  0  0  0  0  0  0  0  0  0
    8.2500   -1.2990    0.0000 C   0  0  0  0  0  0  0  0  0  0  0  0
    7.5000    0.0000    0.0000 O   0  0  0  0  0  0  0  0  0  0  0  0
    9.7500   -1.2990    0.0000 N   0  0  0  0  0  0  0  0  0  0  0  0
   10.5000   -0.0000    0.0000 C   0  0  0  0  0  0  0  0  0  0  0  0
   12.0000    0.0000    0.0000 C   0  0  0  0  0  0  0  0  0  0  0  0
   12.7500    1.2990    0.0000 C   0  0  0  0  0  0  0  0  0  0  0  0
   13.5000    2.5981    0.0000 C   0  0  0  0  0  0  0  0  0  0  0  0
    9.7500    1.2990    0.0000 C   0  0  0  0  0  0  0  0  0  0  0  0
    8.2500    1.2990    0.0000 O   0  0  0  0  0  0  0  0  0  0  0  0
   10.5000    2.5981    0.0000 O   0  0  0  0  0  0  0  0  0  0  0  0
  2  1  1  6
  2  3  1  0
  3  4  1  0
  4  5  1  0
  4  6  1  0
  2  7  1  0
  7  8  2  0
  7  9  1  0
  9 10  1  0
 10 11  1  0
 11 12  1  0
 12 13  1  0
 13 14  2  0
 14 15  1  0
 15 16  2  0
 16 17  1  0
 17 18  2  0
  9 19  1  0
 19 20  1  0
 20 21  2  0
 20 22  1  0
 22 23  1  0
 23 24  1  6
 24 25  1  0
 25 26  3  0
 23 27  1  0
 27 28  2  0
 27 29  1  0
 18 13  1  0
M  END
$$$$

     RDKit          2D

 28 28  0  0  0  0  0  0  0  0999 V2000
    7.5000   -5.1962    0.0000 N   0  0  0  0  0  0  0  0  0  0  0  0
    6.0000   -5.1962    0.0000 C   0  0  0  0  0  0  0  0  0  0  0  0
    5.2500   -6.4952    0.0000 C   0  0  0  0  0  0  0  0  0  0  0  0
    6.0000   -7.7942    0.0000 C   0  0  0  0  0  0  0  0  0  0  0  0
    3.7500   -6.4952    0.0000 C   0  0  0  0  0  0  0  0  0  0  0  0
    5.2500   -3.8971    0.0000 C   0  0  0  0  0  0  0  0  0  0  0  0
    3.7500   -3.8971    0.0000 O   0  0  0  0  0  0  0  0  0  0  0  0
    6.0000   -2.5981    0.0000 N   0  0  0  0  0  0  0  0  0  0  0  0
    5.2500   -1.2990    0.0000 C   0  0  0  0  0  0  0  0  0  0  0  0
    3.7500   -1.2990    0.0000 C   0  0  0  0  0  0  0  0  0  0  0  0
    3.0000    0.0000    0.0000 O   0  0  0  0  0  0  0  0  0  0  0  0
    1.5000    0.0000    0.0000 C   0  0  0  0  0  0  0  0  0  0  0  0
    0.7500   -1.2990    0.0000 C   0  0  0  0  0  0  0  0  0  0  0  0
   -0.7500   -1.2990    0.0000 C   0  0  0  0  0  0  0  0  0  0  0  0
   -1.5000    0.0000    0.0000 C   0  0  0  0  0  0  0  0  0  0  0  0
   -0.7500    1.2990    0.0000 C   0  0  0  0  0  0  0  0  0  0  0  0
    0.7500    1.2990    0.0000 C   0  0  0  0  0  0  0  0  0  0  0  0
    7.5000   -2.5981    0.0000 C   0  0  0  0  0  0  0  0  0  0  0  0
    8.2500   -1.2990    0.0000 C   0  0  0  0  0  0  0  0  0  0  0  0
    7.5000    0.0000    0.0000 O   0  0  0  0  0  0  0  0  0  0  0  0
    9.7500   -1.2990    0.0000 N   0  0  0  0  0  0  0  0  0  0  0  0
   10.5000   -0.0000    0.0000 C   0  0  0  0  0  0  0  0  0  0  0  0
   12.0000    0.0000    0.0000 C   0  0  0  0  0  0  0  0  0  0  0  0
   12.7500    1.2990    0.0000 C   0  0  0  0  0  0  0  0  0  0  0  0
   13.5000    2.5981    0.0000 C   0  0  0  0  0  0  0  0  0  0  0  0
    9.7500    1.2990    0.0000 C   0  0  0  0  0  0  0  0  0  0  0  0
    8.2500    1.2990    0.0000 O   0  0  0  0  0  0  0  0  0  0  0  0
   10.5000    2.5981    0.0000 O   0  0  0  0  0  0  0  0  0  0  0  0
  2  1  1  1
  2  3  1  0
  3  4  1  0
  3  5  1  0
  2  6  1  0
  6  7  2  0
  6  8  1  0
  8  9  1  0
  9 10  1  0
 10 11  1  0
 11 12  1  0
 12 13  2  0
 13 14  1  0
 14 15  2  0
 15 16  1  0
 16 17  2  0
  8 18  1  0
 18 19  1  0
 19 20  2  0
 19 21  1  0
 21 22  1  0
 22 23  1  6
 23 24  1  0
 24 25  3  0
 22 26  1  0
 26 27  2  0
 26 28  1  0
 17 12  1  0
M  END
$$$$

     RDKit          2D

 28 28  0  0  0  0  0  0  0  0999 V2000
    7.5000   -5.1962    0.0000 N   0  0  0  0  0  0  0  0  0  0  0  0
    6.0000   -5.1962    0.0000 C   0  0  0  0  0  0  0  0  0  0  0  0
    5.2500   -6.4952    0.0000 C   0  0  0  0  0  0  0  0  0  0  0  0
    6.0000   -7.7942    0.0000 C   0  0  0  0  0  0  0  0  0  0  0  0
    3.7500   -6.4952    0.0000 C   0  0  0  0  0  0  0  0  0  0  0  0
    5.2500   -3.8971    0.0000 C   0  0  0  0  0  0  0  0  0  0  0  0
    3.7500   -3.8971    0.0000 O   0  0  0  0  0  0  0  0  0  0  0  0
    6.0000   -2.5981    0.0000 N   0  0  0  0  0  0  0  0  0  0  0  0
    5.2500   -1.2990    0.0000 C   0  0  0  0  0  0  0  0  0  0  0  0
    3.7500   -1.2990    0.0000 C   0  0  0  0  0  0  0  0  0  0  0  0
    3.0000    0.0000    0.0000 O   0  0  0  0  0  0  0  0  0  0  0  0
    1.5000    0.0000    0.0000 C   0  0  0  0  0  0  0  0  0  0  0  0
    0.7500   -1.2990    0.0000 C   0  0  0  0  0  0  0  0  0  0  0  0
   -0.7500   -1.2990    0.0000 C   0  0  0  0  0  0  0  0  0  0  0  0
   -1.5000    0.0000    0.0000 C   0  0  0  0  0  0  0  0  0  0  0  0
   -0.7500    1.2990    0.0000 C   0  0  0  0  0  0  0  0  0  0  0  0
    0.7500    1.2990    0.0000 C   0  0  0  0  0  0  0  0  0  0  0  0
    7.5000   -2.5981    0.0000 C   0  0  0  0  0  0  0  0  0  0  0  0
    8.2500   -1.2990    0.0000 C   0  0  0  0  0  0  0  0  0  0  0  0
    7.5000    0.0000    0.0000 O   0  0  0  0  0  0  0  0  0  0  0  0
    9.7500   -1.2990    0.0000 N   0  0  0  0  0  0  0  0  0  0  0  0
   10.5000   -0.0000    0.0000 C   0  0  0  0  0  0  0  0  0  0  0  0
   12.0000    0.0000    0.0000 C   0  0  0  0  0  0  0  0  0  0  0  0
   12.7500    1.2990    0.0000 C   0  0  0  0  0  0  0  0  0  0  0  0
   13.5000    2.5981    0.0000 C   0  0  0  0  0  0  0  0  0  0  0  0
    9.7500    1.2990    0.0000 C   0  0  0  0  0  0  0  0  0  0  0  0
    8.2500    1.2990    0.0000 O   0  0  0  0  0  0  0  0  0  0  0  0
   10.5000    2.5981    0.0000 O   0  0  0  0  0  0  0  0  0  0  0  0
  2  1  1  6
  2  3  1  0
  3  4  1  0
  3  5  1  0
  2  6  1  0
  6  7  2  0
  6  8  1  0
  8  9  1  0
  9 10  1  0
 10 11  1  0
 11 12  1  0
 12 13  2  0
 13 14  1  0
 14 15  2  0
 15 16  1  0
 16 17  2  0
  8 18  1  0
 18 19  1  0
 19 20  2  0
 19 21  1  0
 21 22  1  0
 22 23  1  6
 23 24  1  0
 24 25  3  0
 22 26  1  0
 26 27  2  0
 26 28  1  0
 17 12  1  0
M  END
$$$$

     RDKit          2D

 30 30  0  0  0  0  0  0  0  0999 V2000
    7.5000   -5.1962    0.0000 N   0  0  0  0  0  0  0  0  0  0  0  0
    8.2500   -6.4952    0.0000 C   0  0  0  0  0  0  0  0  0  0  0  0
    6.0000   -5.1962    0.0000 C   0  0  0  0  0  0  0  0  0  0  0  0
    5.2500   -6.4952    0.0000 C   0  0  0  0  0  0  0  0  0  0  0  0
    6.0000   -7.7942    0.0000 C   0  0  0  0  0  0  0  0  0  0  0  0
    5.2500   -9.0933    0.0000 C   0  0  0  0  0  0  0  0  0  0  0  0
    7.5000   -7.7942    0.0000 C   0  0  0  0  0  0  0  0  0  0  0  0
    5.2500   -3.8971    0.0000 C   0  0  0  0  0  0  0  0  0  0  0  0
    3.7500   -3.8971    0.0000 O   0  0  0  0  0  0  0  0  0  0  0  0
    6.0000   -2.5981    0.0000 N   0  0  0  0  0  0  0  0  0  0  0  0
    5.2500   -1.2990    0.0000 C   0  0  0  0  0  0  0  0  0  0  0  0
    3.7500   -1.2990    0.0000 C   0  0  0  0  0  0  0  0  0  0  0  0
    3.0000    0.0000    0.0000 O   0  0  0  0  0  0  0  0  0  0  0  0
    1.5000    0.0000    0.0000 C   0  0  0  0  0  0  0  0  0  0  0  0
    0.7500   -1.2990    0.0000 C   0  0  0  0  0  0  0  0  0  0  0  0
   -0.7500   -1.2990    0.0000 C   0  0  0  0  0  0  0  0  0  0  0  0
   -1.5000    0.0000    0.0000 C   0  0  0  0  0  0  0  0  0  0  0  0
   -0.7500    1.2990    0.0000 C   0  0  0  0  0  0  0  0  0  0  0  0
    0.7500    1.2990    0.0000 C   0  0  0  0  0  0  0  0  0  0  0  0
    7.5000   -2.5981    0.0000 C   0  0  0  0  0  0  0  0  0  0  0  0
    8.2500   -1.2990    0.0000 C   0  0  0  0  0  0  0  0  0  0  0  0
    7.5000    0.0000    0.0000 O   0  0  0  0  0  0  0  0  0  0  0  0
    9.7500   -1.2990    0.0000 N   0  0  0  0  0  0  0  0  0  0  0  0
   10.5000   -0.0000    0.0000 C   0  0  0  0  0  0  0  0  0  0  0  0
   12.0000    0.0000    0.0000 C   0  0  0  0  0  0  0  0  0  0  0  0
   12.7500    1.2990    0.0000 C   0  0  0  0  0  0  0  0  0  0  0  0
   13.5000    2.5981    0.0000 C   0  0  0  0  0  0  0  0  0  0  0  0
    9.7500    1.2990    0.0000 C   0  0  0  0  0  0  0  0  0  0  0  0
    8.2500    1.2990    0.0000 O   0  0  0  0  0  0  0  0  0  0  0  0
   10.5000    2.5981    0.0000 O   0  0  0  0  0  0  0  0  0  0  0  0
  1  2  1  0
  1  3  1  0
  3  4  1  1
  4  5  1  0
  5  6  1  0
  5  7  1  0
  3  8  1  0
  8  9  2  0
  8 10  1  0
 10 11  1  0
 11 12  1  0
 12 13  1  0
 13 14  1  0
 14 15  2  0
 15 16  1  0
 16 17  2  0
 17 18  1  0
 18 19  2  0
 10 20  1  0
 20 21  1  0
 21 22  2  0
 21 23  1  0
 23 24  1  0
 24 25  1  6
 25 26  1  0
 26 27  3  0
 24 28  1  0
 28 29  2  0
 28 30  1  0
 19 14  1  0
M  END
$$$$

     RDKit          2D

 30 30  0  0  0  0  0  0  0  0999 V2000
    7.5000   -5.1962    0.0000 N   0  0  0  0  0  0  0  0  0  0  0  0
    8.2500   -6.4952    0.0000 C   0  0  0  0  0  0  0  0  0  0  0  0
    6.0000   -5.1962    0.0000 C   0  0  0  0  0  0  0  0  0  0  0  0
    5.2500   -6.4952    0.0000 C   0  0  0  0  0  0  0  0  0  0  0  0
    6.0000   -7.7942    0.0000 C   0  0  0  0  0  0  0  0  0  0  0  0
    5.2500   -9.0933    0.0000 C   0  0  0  0  0  0  0  0  0  0  0  0
    7.5000   -7.7942    0.0000 C   0  0  0  0  0  0  0  0  0  0  0  0
    5.2500   -3.8971    0.0000 C   0  0  0  0  0  0  0  0  0  0  0  0
    3.7500   -3.8971    0.0000 O   0  0  0  0  0  0  0  0  0  0  0  0
    6.0000   -2.5981    0.0000 N   0  0  0  0  0  0  0  0  0  0  0  0
    5.2500   -1.2990    0.0000 C   0  0  0  0  0  0  0  0  0  0  0  0
    3.7500   -1.2990    0.0000 C   0  0  0  0  0  0  0  0  0  0  0  0
    3.0000    0.0000    0.0000 O   0  0  0  0  0  0  0  0  0  0  0  0
    1.5000    0.0000    0.0000 C   0  0  0  0  0  0  0  0  0  0  0  0
    0.7500   -1.2990    0.0000 C   0  0  0  0  0  0  0  0  0  0  0  0
   -0.7500   -1.2990    0.0000 C   0  0  0  0  0  0  0  0  0  0  0  0
   -1.5000    0.0000    0.0000 C   0  0  0  0  0  0  0  0  0  0  0  0
   -0.7500    1.2990    0.0000 C   0  0  0  0  0  0  0  0  0  0  0  0
    0.7500    1.2990    0.0000 C   0  0  0  0  0  0  0  0  0  0  0  0
    7.5000   -2.5981    0.0000 C   0  0  0  0  0  0  0  0  0  0  0  0
    8.2500   -1.2990    0.0000 C   0  0  0  0  0  0  0  0  0  0  0  0
    7.5000    0.0000    0.0000 O   0  0  0  0  0  0  0  0  0  0  0  0
    9.7500   -1.2990    0.0000 N   0  0  0  0  0  0  0  0  0  0  0  0
   10.5000   -0.0000    0.0000 C   0  0  0  0  0  0  0  0  0  0  0  0
   12.0000    0.0000    0.0000 C   0  0  0  0  0  0  0  0  0  0  0  0
   12.7500    1.2990    0.0000 C   0  0  0  0  0  0  0  0  0  0  0  0
   13.5000    2.5981    0.0000 C   0  0  0  0  0  0  0  0  0  0  0  0
    9.7500    1.2990    0.0000 C   0  0  0  0  0  0  0  0  0  0  0  0
    8.2500    1.2990    0.0000 O   0  0  0  0  0  0  0  0  0  0  0  0
   10.5000    2.5981    0.0000 O   0  0  0  0  0  0  0  0  0  0  0  0
  1  2  1  0
  1  3  1  0
  3  4  1  6
  4  5  1  0
  5  6  1  0
  5  7  1  0
  3  8  1  0
  8  9  2  0
  8 10  1  0
 10 11  1  0
 11 12  1  0
 12 13  1  0
 13 14  1  0
 14 15  2  0
 15 16  1  0
 16 17  2  0
 17 18  1  0
 18 19  2  0
 10 20  1  0
 20 21  1  0
 21 22  2  0
 21 23  1  0
 23 24  1  0
 24 25  1  6
 25 26  1  0
 26 27  3  0
 24 28  1  0
 28 29  2  0
 28 30  1  0
 19 14  1  0
M  END
$$$$

     RDKit          2D

 32 33  0  0  0  0  0  0  0  0999 V2000
   -0.7500   -3.8971    0.0000 N   0  0  0  0  0  0  0  0  0  0  0  0
    0.7500   -3.8971    0.0000 C   0  0  0  0  0  0  0  0  0  0  0  0
    1.5000   -2.5981    0.0000 C   0  0  0  0  0  0  0  0  0  0  0  0
    0.7500   -1.2990    0.0000 C   0  0  0  0  0  0  0  0  0  0  0  0
    1.5000    0.0000    0.0000 C   0  0  0  0  0  0  0  0  0  0  0  0
    0.7500    1.2990    0.0000 C   0  0  0  0  0  0  0  0  0  0  0  0
   -0.7500    1.2990    0.0000 C   0  0  0  0  0  0  0  0  0  0  0  0
   -1.5000    0.0000    0.0000 C   0  0  0  0  0  0  0  0  0  0  0  0
   -0.7500   -1.2990    0.0000 C   0  0  0  0  0  0  0  0  0  0  0  0
    1.5000   -5.1962    0.0000 C   0  0  0  0  0  0  0  0  0  0  0  0
    3.0000   -5.1962    0.0000 O   0  0  0  0  0  0  0  0  0  0  0  0
    0.7500   -6.4952    0.0000 N   0  0  0  0  0  0  0  0  0  0  0  0
    1.5000   -7.7942    0.0000 C   0  0  0  0  0  0  0  0  0  0  0  0
    0.7500   -9.0933    0.0000 C   0  0  0  0  0  0  0  0  0  0  0  0
    1.5000  -10.3923    0.0000 O   0  0  0  0  0  0  0  0  0  0  0  0
    0.7500  -11.6913    0.0000 C   0  0  0  0  0  0  0  0  0  0  0  0
   -0.7500  -11.6913    0.0000 C   0  0  0  0  0  0  0  0  0  0  0  0
   -1.5000  -12.9904    0.0000 C   0  0  0  0  0  0  0  0  0  0  0  0
   -0.7500  -14.2894    0.0000 C   0  0  0  0  0  0  0  0  0  0  0  0
    0.7500  -14.2894    0.0000 C   0  0  0  0  0  0  0  0  0  0  0  0
    1.5000  -12.9904    0.0000 C   0  0  0  0  0  0  0  0  0  0  0  0
   -0.7500   -6.4952    0.0000 C   0  0  0  0  0  0  0  0  0  0  0  0
   -1.5000   -7.7942    0.0000 C   0  0  0  0  0  0  0  0  0  0  0  0
   -0.7500   -9.0933    0.0000 O   0  0  0  0  0  0  0  0  0  0  0  0
   -3.0000   -7.7942    0.0000 N   0  0  0  0  0  0  0  0  0  0  0  0
   -3.7500   -9.0933    0.0000 C   0  0  0  0  0  0  0  0  0  0  0  0
   -5.2500   -9.0933    0.0000 C   0  0  0  0  0  0  0  0  0  0  0  0
   -6.0000  -10.3923    0.0000 C   0  0  0  0  0  0  0  0  0  0  0  0
   -6.7500  -11.6913    0.0000 C   0  0  0  0  0  0  0  0  0  0  0  0
   -3.0000  -10.3923    0.0000 C   0  0  0  0  0  0  0  0  0  0  0  0
   -1.5000  -10.3923    0.0000 O   0  0  0  0  0  0  0  0  0  0  0  0
   -3.7500  -11.6913    0.0000 O   0  0  0  0  0  0  0  0  0  0  0  0
  2  1  1  1
  2  3  1  0
  3  4  1  0
  4  5  2  0
  5  6  1  0
  6  7  2  0
  7  8  1  0
  8  9  2  0
  2 10  1  0
 10 11  2  0
 10 12  1  0
 12 13  1  0
 13 14  1  0
 14 15  1  0
 15 16  1  0
 16 17  2  0
 17 18  1  0
 18 19  2  0
 19 20  1  0
 20 21  2  0
 12 22  1  0
 22 23  1  0
 23 24  2  0
 23 25  1  0
 25 26  1  0
 26 27  1  6
 27 28  1  0
 28 29  3  0
 26 30  1  0
 30 31  2  0
 30 32  1  0
  9  4  1  0
 21 16  1  0
M  END
$$$$

     RDKit          2D

 32 33  0  0  0  0  0  0  0  0999 V2000
   -0.7500   -3.8971    0.0000 N   0  0  0  0  0  0  0  0  0  0  0  0
    0.7500   -3.8971    0.0000 C   0  0  0  0  0  0  0  0  0  0  0  0
    1.5000   -2.5981    0.0000 C   0  0  0  0  0  0  0  0  0  0  0  0
    0.7500   -1.2990    0.0000 C   0  0  0  0  0  0  0  0  0  0  0  0
    1.5000    0.0000    0.0000 C   0  0  0  0  0  0  0  0  0  0  0  0
    0.7500    1.2990    0.0000 C   0  0  0  0  0  0  0  0  0  0  0  0
   -0.7500    1.2990    0.0000 C   0  0  0  0  0  0  0  0  0  0  0  0
   -1.5000    0.0000    0.0000 C   0  0  0  0  0  0  0  0  0  0  0  0
   -0.7500   -1.2990    0.0000 C   0  0  0  0  0  0  0  0  0  0  0  0
    1.5000   -5.1962    0.0000 C   0  0  0  0  0  0  0  0  0  0  0  0
    3.0000   -5.1962    0.0000 O   0  0  0  0  0  0  0  0  0  0  0  0
    0.7500   -6.4952    0.0000 N   0  0  0  0  0  0  0  0  0  0  0  0
    1.5000   -7.7942    0.0000 C   0  0  0  0  0  0  0  0  0  0  0  0
    0.7500   -9.0933    0.0000 C   0  0  0  0  0  0  0  0  0  0  0  0
    1.5000  -10.3923    0.0000 O   0  0  0  0  0  0  0  0  0  0  0  0
    0.7500  -11.6913    0.0000 C   0  0  0  0  0  0  0  0  0  0  0  0
   -0.7500  -11.6913    0.0000 C   0  0  0  0  0  0  0  0  0  0  0  0
   -1.5000  -12.9904    0.0000 C   0  0  0  0  0  0  0  0  0  0  0  0
   -0.7500  -14.2894    0.0000 C   0  0  0  0  0  0  0  0  0  0  0  0
    0.7500  -14.2894    0.0000 C   0  0  0  0  0  0  0  0  0  0  0  0
    1.5000  -12.9904    0.0000 C   0  0  0  0  0  0  0  0  0  0  0  0
   -0.7500   -6.4952    0.0000 C   0  0  0  0  0  0  0  0  0  0  0  0
   -1.5000   -7.7942    0.0000 C   0  0  0  0  0  0  0  0  0  0  0  0
   -0.7500   -9.0933    0.0000 O   0  0  0  0  0  0  0  0  0  0  0  0
   -3.0000   -7.7942    0.0000 N   0  0  0  0  0  0  0  0  0  0  0  0
   -3.7500   -9.0933    0.0000 C   0  0  0  0  0  0  0  0  0  0  0  0
   -5.2500   -9.0933    0.0000 C   0  0  0  0  0  0  0  0  0  0  0  0
   -6.0000  -10.3923    0.0000 C   0  0  0  0  0  0  0  0  0  0  0  0
   -6.7500  -11.6913    0.0000 C   0  0  0  0  0  0  0  0  0  0  0  0
   -3.0000  -10.3923    0.0000 C   0  0  0  0  0  0  0  0  0  0  0  0
   -1.5000  -10.3923    0.0000 O   0  0  0  0  0  0  0  0  0  0  0  0
   -3.7500  -11.6913    0.0000 O   0  0  0  0  0  0  0  0  0  0  0  0
  2  1  1  6
  2  3  1  0
  3  4  1  0
  4  5  2  0
  5  6  1  0
  6  7  2  0
  7  8  1  0
  8  9  2  0
  2 10  1  0
 10 11  2  0
 10 12  1  0
 12 13  1  0
 13 14  1  0
 14 15  1  0
 15 16  1  0
 16 17  2  0
 17 18  1  0
 18 19  2  0
 19 20  1  0
 20 21  2  0
 12 22  1  0
 22 23  1  0
 23 24  2  0
 23 25  1  0
 25 26  1  0
 26 27  1  6
 27 28  1  0
 28 29  3  0
 26 30  1  0
 30 31  2  0
 30 32  1  0
  9  4  1  0
 21 16  1  0
M  END
$$$$

     RDKit          2D

 33 34  0  0  0  0  0  0  0  0999 V2000
   -0.7500   -3.8971    0.0000 N   0  0  0  0  0  0  0  0  0  0  0  0
   -1.5000   -5.1962    0.0000 C   0  0  0  0  0  0  0  0  0  0  0  0
    0.7500   -3.8971    0.0000 C   0  0  0  0  0  0  0  0  0  0  0  0
    1.5000   -2.5981    0.0000 C   0  0  0  0  0  0  0  0  0  0  0  0
    0.7500   -1.2990    0.0000 C   0  0  0  0  0  0  0  0  0  0  0  0
    1.5000    0.0000    0.0000 C   0  0  0  0  0  0  0  0  0  0  0  0
    0.7500    1.2990    0.0000 C   0  0  0  0  0  0  0  0  0  0  0  0
   -0.7500    1.2990    0.0000 C   0  0  0  0  0  0  0  0  0  0  0  0
   -1.5000    0.0000    0.0000 C   0  0  0  0  0  0  0  0  0  0  0  0
   -0.7500   -1.2990    0.0000 C   0  0  0  0  0  0  0  0  0  0  0  0
    1.5000   -5.1962    0.0000 C   0  0  0  0  0  0  0  0  0  0  0  0
    3.0000   -5.1962    0.0000 O   0  0  0  0  0  0  0  0  0  0  0  0
    0.7500   -6.4952    0.0000 N   0  0  0  0  0  0  0  0  0  0  0  0
    1.5000   -7.7942    0.0000 C   0  0  0  0  0  0  0  0  0  0  0  0
    0.7500   -9.0933    0.0000 C   0  0  0  0  0  0  0  0  0  0  0  0
    1.5000  -10.3923    0.0000 O   0  0  0  0  0  0  0  0  0  0  0  0
    0.7500  -11.6913    0.0000 C   0  0  0  0  0  0  0  0  0  0  0  0
   -0.7500  -11.6913    0.0000 C   0  0  0  0  0  0  0  0  0  0  0  0
   -1.5000  -12.9904    0.0000 C   0  0  0  0  0  0  0  0  0  0  0  0
   -0.7500  -14.2894    0.0000 C   0  0  0  0  0  0  0  0  0  0  0  0
    0.7500  -14.2894    0.0000 C   0  0  0  0  0  0  0  0  0  0  0  0
    1.5000  -12.9904    0.0000 C   0  0  0  0  0  0  0  0  0  0  0  0
   -0.7500   -6.4952    0.0000 C   0  0  0  0  0  0  0  0  0  0  0  0
   -1.5000   -7.7942    0.0000 C   0  0  0  0  0  0  0  0  0  0  0  0
   -0.7500   -9.0933    0.0000 O   0  0  0  0  0  0  0  0  0  0  0  0
   -3.0000   -7.7942    0.0000 N   0  0  0  0  0  0  0  0  0  0  0  0
   -3.7500   -9.0933    0.0000 C   0  0  0  0  0  0  0  0  0  0  0  0
   -5.2500   -9.0933    0.0000 C   0  0  0  0  0  0  0  0  0  0  0  0
   -6.0000  -10.3923    0.0000 C   0  0  0  0  0  0  0  0  0  0  0  0
   -6.7500  -11.6913    0.0000 C   0  0  0  0  0  0  0  0  0  0  0  0
   -3.0000  -10.3923    0.0000 C   0  0  0  0  0  0  0  0  0  0  0  0
   -1.5000  -10.3923    0.0000 O   0  0  0  0  0  0  0  0  0  0  0  0
   -3.7500  -11.6913    0.0000 O   0  0  0  0  0  0  0  0  0  0  0  0
  1  2  1  0
  1  3  1  0
  3  4  1  1
  4  5  1  0
  5  6  2  0
  6  7  1  0
  7  8  2  0
  8  9  1  0
  9 10  2  0
  3 11  1  0
 11 12  2  0
 11 13  1  0
 13 14  1  0
 14 15  1  0
 15 16  1  0
 16 17  1  0
 17 18  2  0
 18 19  1  0
 19 20  2  0
 20 21  1  0
 21 22  2  0
 13 23  1  0
 23 24  1  0
 24 25  2  0
 24 26  1  0
 26 27  1  0
 27 28  1  6
 28 29  1  0
 29 30  3  0
 27 31  1  0
 31 32  2  0
 31 33  1  0
 10  5  1  0
 22 17  1  0
M  END
$$$$

     RDKit          2D

 33 34  0  0  0  0  0  0  0  0999 V2000
   -0.7500   -3.8971    0.0000 N   0  0  0  0  0  0  0  0  0  0  0  0
   -1.5000   -5.1962    0.0000 C   0  0  0  0  0  0  0  0  0  0  0  0
    0.7500   -3.8971    0.0000 C   0  0  0  0  0  0  0  0  0  0  0  0
    1.5000   -2.5981    0.0000 C   0  0  0  0  0  0  0  0  0  0  0  0
    0.7500   -1.2990    0.0000 C   0  0  0  0  0  0  0  0  0  0  0  0
    1.5000    0.0000    0.0000 C   0  0  0  0  0  0  0  0  0  0  0  0
    0.7500    1.2990    0.0000 C   0  0  0  0  0  0  0  0  0  0  0  0
   -0.7500    1.2990    0.0000 C   0  0  0  0  0  0  0  0  0  0  0  0
   -1.5000    0.0000    0.0000 C   0  0  0  0  0  0  0  0  0  0  0  0
   -0.7500   -1.2990    0.0000 C   0  0  0  0  0  0  0  0  0  0  0  0
    1.5000   -5.1962    0.0000 C   0  0  0  0  0  0  0  0  0  0  0  0
    3.0000   -5.1962    0.0000 O   0  0  0  0  0  0  0  0  0  0  0  0
    0.7500   -6.4952    0.0000 N   0  0  0  0  0  0  0  0  0  0  0  0
    1.5000   -7.7942    0.0000 C   0  0  0  0  0  0  0  0  0  0  0  0
    0.7500   -9.0933    0.0000 C   0  0  0  0  0  0  0  0  0  0  0  0
    1.5000  -10.3923    0.0000 O   0  0  0  0  0  0  0  0  0  0  0  0
    0.7500  -11.6913    0.0000 C   0  0  0  0  0  0  0  0  0  0  0  0
   -0.7500  -11.6913    0.0000 C   0  0  0  0  0  0  0  0  0  0  0  0
   -1.5000  -12.9904    0.0000 C   0  0  0  0  0  0  0  0  0  0  0  0
   -0.7500  -14.2894    0.0000 C   0  0  0  0  0  0  0  0  0  0  0  0
    0.7500  -14.2894    0.0000 C   0  0  0  0  0  0  0  0  0  0  0  0
    1.5000  -12.9904    0.0000 C   0  0  0  0  0  0  0  0  0  0  0  0
   -0.7500   -6.4952    0.0000 C   0  0  0  0  0  0  0  0  0  0  0  0
   -1.5000   -7.7942    0.0000 C   0  0  0  0  0  0  0  0  0  0  0  0
   -0.7500   -9.0933    0.0000 O   0  0  0  0  0  0  0  0  0  0  0  0
   -3.0000   -7.7942    0.0000 N   0  0  0  0  0  0  0  0  0  0  0  0
   -3.7500   -9.0933    0.0000 C   0  0  0  0  0  0  0  0  0  0  0  0
   -5.2500   -9.0933    0.0000 C   0  0  0  0  0  0  0  0  0  0  0  0
   -6.0000  -10.3923    0.0000 C   0  0  0  0  0  0  0  0  0  0  0  0
   -6.7500  -11.6913    0.0000 C   0  0  0  0  0  0  0  0  0  0  0  0
   -3.0000  -10.3923    0.0000 C   0  0  0  0  0  0  0  0  0  0  0  0
   -1.5000  -10.3923    0.0000 O   0  0  0  0  0  0  0  0  0  0  0  0
   -3.7500  -11.6913    0.0000 O   0  0  0  0  0  0  0  0  0  0  0  0
  1  2  1  0
  1  3  1  0
  3  4  1  6
  4  5  1  0
  5  6  2  0
  6  7  1  0
  7  8  2  0
  8  9  1  0
  9 10  2  0
  3 11  1  0
 11 12  2  0
 11 13  1  0
 13 14  1  0
 14 15  1  0
 15 16  1  0
 16 17  1  0
 17 18  2  0
 18 19  1  0
 19 20  2  0
 20 21  1  0
 21 22  2  0
 13 23  1  0
 23 24  1  0
 24 25  2  0
 24 26  1  0
 26 27  1  0
 27 28  1  6
 28 29  1  0
 29 30  3  0
 27 31  1  0
 31 32  2  0
 31 33  1  0
 10  5  1  0
 22 17  1  0
M  END
$$$$

     RDKit          2D

 28 28  0  0  0  0  0  0  0  0999 V2000
    7.5000   -5.1962    0.0000 N   0  0  0  0  0  0  0  0  0  0  0  0
    6.0000   -5.1962    0.0000 C   0  0  0  0  0  0  0  0  0  0  0  0
    5.2500   -6.4952    0.0000 C   0  0  0  0  0  0  0  0  0  0  0  0
    3.7500   -6.4952    0.0000 O   0  0  0  0  0  0  0  0  0  0  0  0
    6.0000   -7.7942    0.0000 C   0  0  0  0  0  0  0  0  0  0  0  0
    5.2500   -3.8971    0.0000 C   0  0  0  0  0  0  0  0  0  0  0  0
    3.7500   -3.8971    0.0000 O   0  0  0  0  0  0  0  0  0  0  0  0
    6.0000   -2.5981    0.0000 N   0  0  0  0  0  0  0  0  0  0  0  0
    5.2500   -1.2990    0.0000 C   0  0  0  0  0  0  0  0  0  0  0  0
    3.7500   -1.2990    0.0000 C   0  0  0  0  0  0  0  0  0  0  0  0
    3.0000    0.0000    0.0000 O   0  0  0  0  0  0  0  0  0  0  0  0
    1.5000    0.0000    0.0000 C   0  0  0  0  0  0  0  0  0  0  0  0
    0.7500   -1.2990    0.0000 C   0  0  0  0  0  0  0  0  0  0  0  0
   -0.7500   -1.2990    0.0000 C   0  0  0  0  0  0  0  0  0  0  0  0
   -1.5000    0.0000    0.0000 C   0  0  0  0  0  0  0  0  0  0  0  0
   -0.7500    1.2990    0.0000 C   0  0  0  0  0  0  0  0  0  0  0  0
    0.7500    1.2990    0.0000 C   0  0  0  0  0  0  0  0  0  0  0  0
    7.5000   -2.5981    0.0000 C   0  0  0  0  0  0  0  0  0  0  0  0
    8.2500   -1.2990    0.0000 C   0  0  0  0  0  0  0  0  0  0  0  0
    7.5000    0.0000    0.0000 O   0  0  0  0  0  0  0  0  0  0  0  0
    9.7500   -1.2990    0.0000 N   0  0  0  0  0  0  0  0  0  0  0  0
   10.5000   -0.0000    0.0000 C   0  0  0  0  0  0  0  0  0  0  0  0
   12.0000    0.0000    0.0000 C   0  0  0  0  0  0  0  0  0  0  0  0
   12.7500    1.2990    0.0000 C   0  0  0  0  0  0  0  0  0  0  0  0
   13.5000    2.5981    0.0000 C   0  0  0  0  0  0  0  0  0  0  0  0
    9.7500    1.2990    0.0000 C   0  0  0  0  0  0  0  0  0  0  0  0
    8.2500    1.2990    0.0000 O   0  0  0  0  0  0  0  0  0  0  0  0
   10.5000    2.5981    0.0000 O   0  0  0  0  0  0  0  0  0  0  0  0
  2  1  1  1
  2  3  1  0
  3  4  1  0
  3  5  1  1
  2  6  1  0
  6  7  2  0
  6  8  1  0
  8  9  1  0
  9 10  1  0
 10 11  1  0
 11 12  1  0
 12 13  2  0
 13 14  1  0
 14 15  2  0
 15 16  1  0
 16 17  2  0
  8 18  1  0
 18 19  1  0
 19 20  2  0
 19 21  1  0
 21 22  1  0
 22 23  1  6
 23 24  1  0
 24 25  3  0
 22 26  1  0
 26 27  2  0
 26 28  1  0
 17 12  1  0
M  END
$$$$

     RDKit          2D

 28 28  0  0  0  0  0  0  0  0999 V2000
    7.5000   -5.1962    0.0000 N   0  0  0  0  0  0  0  0  0  0  0  0
    6.0000   -5.1962    0.0000 C   0  0  0  0  0  0  0  0  0  0  0  0
    5.2500   -6.4952    0.0000 C   0  0  0  0  0  0  0  0  0  0  0  0
    3.7500   -6.4952    0.0000 O   0  0  0  0  0  0  0  0  0  0  0  0
    6.0000   -7.7942    0.0000 C   0  0  0  0  0  0  0  0  0  0  0  0
    5.2500   -3.8971    0.0000 C   0  0  0  0  0  0  0  0  0  0  0  0
    3.7500   -3.8971    0.0000 O   0  0  0  0  0  0  0  0  0  0  0  0
    6.0000   -2.5981    0.0000 N   0  0  0  0  0  0  0  0  0  0  0  0
    5.2500   -1.2990    0.0000 C   0  0  0  0  0  0  0  0  0  0  0  0
    3.7500   -1.2990    0.0000 C   0  0  0  0  0  0  0  0  0  0  0  0
    3.0000    0.0000    0.0000 O   0  0  0  0  0  0  0  0  0  0  0  0
    1.5000    0.0000    0.0000 C   0  0  0  0  0  0  0  0  0  0  0  0
    0.7500   -1.2990    0.0000 C   0  0  0  0  0  0  0  0  0  0  0  0
   -0.7500   -1.2990    0.0000 C   0  0  0  0  0  0  0  0  0  0  0  0
   -1.5000    0.0000    0.0000 C   0  0  0  0  0  0  0  0  0  0  0  0
   -0.7500    1.2990    0.0000 C   0  0  0  0  0  0  0  0  0  0  0  0
    0.7500    1.2990    0.0000 C   0  0  0  0  0  0  0  0  0  0  0  0
    7.5000   -2.5981    0.0000 C   0  0  0  0  0  0  0  0  0  0  0  0
    8.2500   -1.2990    0.0000 C   0  0  0  0  0  0  0  0  0  0  0  0
    7.5000    0.0000    0.0000 O   0  0  0  0  0  0  0  0  0  0  0  0
    9.7500   -1.2990    0.0000 N   0  0  0  0  0  0  0  0  0  0  0  0
   10.5000   -0.0000    0.0000 C   0  0  0  0  0  0  0  0  0  0  0  0
   12.0000    0.0000    0.0000 C   0  0  0  0  0  0  0  0  0  0  0  0
   12.7500    1.2990    0.0000 C   0  0  0  0  0  0  0  0  0  0  0  0
   13.5000    2.5981    0.0000 C   0  0  0  0  0  0  0  0  0  0  0  0
    9.7500    1.2990    0.0000 C   0  0  0  0  0  0  0  0  0  0  0  0
    8.2500    1.2990    0.0000 O   0  0  0  0  0  0  0  0  0  0  0  0
   10.5000    2.5981    0.0000 O   0  0  0  0  0  0  0  0  0  0  0  0
  2  1  1  6
  2  3  1  0
  3  4  1  0
  3  5  1  1
  2  6  1  0
  6  7  2  0
  6  8  1  0
  8  9  1  0
  9 10  1  0
 10 11  1  0
 11 12  1  0
 12 13  2  0
 13 14  1  0
 14 15  2  0
 15 16  1  0
 16 17  2  0
  8 18  1  0
 18 19  1  0
 19 20  2  0
 19 21  1  0
 21 22  1  0
 22 23  1  6
 23 24  1  0
 24 25  3  0
 22 26  1  0
 26 27  2  0
 26 28  1  0
 17 12  1  0
M  END
$$$$

     RDKit          2D

 29 29  0  0  0  0  0  0  0  0999 V2000
    7.5000   -5.1962    0.0000 N   0  0  0  0  0  0  0  0  0  0  0  0
    8.2500   -6.4952    0.0000 C   0  0  0  0  0  0  0  0  0  0  0  0
    6.0000   -5.1962    0.0000 C   0  0  0  0  0  0  0  0  0  0  0  0
    5.2500   -6.4952    0.0000 C   0  0  0  0  0  0  0  0  0  0  0  0
    3.7500   -6.4952    0.0000 O   0  0  0  0  0  0  0  0  0  0  0  0
    6.0000   -7.7942    0.0000 C   0  0  0  0  0  0  0  0  0  0  0  0
    5.2500   -3.8971    0.0000 C   0  0  0  0  0  0  0  0  0  0  0  0
    3.7500   -3.8971    0.0000 O   0  0  0  0  0  0  0  0  0  0  0  0
    6.0000   -2.5981    0.0000 N   0  0  0  0  0  0  0  0  0  0  0  0
    5.2500   -1.2990    0.0000 C   0  0  0  0  0  0  0  0  0  0  0  0
    3.7500   -1.2990    0.0000 C   0  0  0  0  0  0  0  0  0  0  0  0
    3.0000    0.0000    0.0000 O   0  0  0  0  0  0  0  0  0  0  0  0
    1.5000    0.0000    0.0000 C   0  0  0  0  0  0  0  0  0  0  0  0
    0.7500   -1.2990    0.0000 C   0  0  0  0  0  0  0  0  0  0  0  0
   -0.7500   -1.2990    0.0000 C   0  0  0  0  0  0  0  0  0  0  0  0
   -1.5000    0.0000    0.0000 C   0  0  0  0  0  0  0  0  0  0  0  0
   -0.7500    1.2990    0.0000 C   0  0  0  0  0  0  0  0  0  0  0  0
    0.7500    1.2990    0.0000 C   0  0  0  0  0  0  0  0  0  0  0  0
    7.5000   -2.5981    0.0000 C   0  0  0  0  0  0  0  0  0  0  0  0
    8.2500   -1.2990    0.0000 C   0  0  0  0  0  0  0  0  0  0  0  0
    7.5000    0.0000    0.0000 O   0  0  0  0  0  0  0  0  0  0  0  0
    9.7500   -1.2990    0.0000 N   0  0  0  0  0  0  0  0  0  0  0  0
   10.5000   -0.0000    0.0000 C   0  0  0  0  0  0  0  0  0  0  0  0
   12.0000    0.0000    0.0000 C   0  0  0  0  0  0  0  0  0  0  0  0
   12.7500    1.2990    0.0000 C   0  0  0  0  0  0  0  0  0  0  0  0
   13.5000    2.5981    0.0000 C   0  0  0  0  0  0  0  0  0  0  0  0
    9.7500    1.2990    0.0000 C   0  0  0  0  0  0  0  0  0  0  0  0
    8.2500    1.2990    0.0000 O   0  0  0  0  0  0  0  0  0  0  0  0
   10.5000    2.5981    0.0000 O   0  0  0  0  0  0  0  0  0  0  0  0
  1  2  1  0
  3  1  1  1
  3  4  1  0
  4  5  1  0
  4  6  1  1
  3  7  1  0
  7  8  2  0
  7  9  1  0
  9 10  1  0
 10 11  1  0
 11 12  1  0
 12 13  1  0
 13 14  2  0
 14 15  1  0
 15 16  2  0
 16 17  1  0
 17 18  2  0
  9 19  1  0
 19 20  1  0
 20 21  2  0
 20 22  1  0
 22 23  1  0
 23 24  1  6
 24 25  1  0
 25 26  3  0
 23 27  1  0
 27 28  2  0
 27 29  1  0
 18 13  1  0
M  END
$$$$

     RDKit          2D

 29 29  0  0  0  0  0  0  0  0999 V2000
    7.5000   -5.1962    0.0000 N   0  0  0  0  0  0  0  0  0  0  0  0
    8.2500   -6.4952    0.0000 C   0  0  0  0  0  0  0  0  0  0  0  0
    6.0000   -5.1962    0.0000 C   0  0  0  0  0  0  0  0  0  0  0  0
    5.2500   -6.4952    0.0000 C   0  0  0  0  0  0  0  0  0  0  0  0
    3.7500   -6.4952    0.0000 O   0  0  0  0  0  0  0  0  0  0  0  0
    6.0000   -7.7942    0.0000 C   0  0  0  0  0  0  0  0  0  0  0  0
    5.2500   -3.8971    0.0000 C   0  0  0  0  0  0  0  0  0  0  0  0
    3.7500   -3.8971    0.0000 O   0  0  0  0  0  0  0  0  0  0  0  0
    6.0000   -2.5981    0.0000 N   0  0  0  0  0  0  0  0  0  0  0  0
    5.2500   -1.2990    0.0000 C   0  0  0  0  0  0  0  0  0  0  0  0
    3.7500   -1.2990    0.0000 C   0  0  0  0  0  0  0  0  0  0  0  0
    3.0000    0.0000    0.0000 O   0  0  0  0  0  0  0  0  0  0  0  0
    1.5000    0.0000    0.0000 C   0  0  0  0  0  0  0  0  0  0  0  0
    0.7500   -1.2990    0.0000 C   0  0  0  0  0  0  0  0  0  0  0  0
   -0.7500   -1.2990    0.0000 C   0  0  0  0  0  0  0  0  0  0  0  0
   -1.5000    0.0000    0.0000 C   0  0  0  0  0  0  0  0  0  0  0  0
   -0.7500    1.2990    0.0000 C   0  0  0  0  0  0  0  0  0  0  0  0
    0.7500    1.2990    0.0000 C   0  0  0  0  0  0  0  0  0  0  0  0
    7.5000   -2.5981    0.0000 C   0  0  0  0  0  0  0  0  0  0  0  0
    8.2500   -1.2990    0.0000 C   0  0  0  0  0  0  0  0  0  0  0  0
    7.5000    0.0000    0.0000 O   0  0  0  0  0  0  0  0  0  0  0  0
    9.7500   -1.2990    0.0000 N   0  0  0  0  0  0  0  0  0  0  0  0
   10.5000   -0.0000    0.0000 C   0  0  0  0  0  0  0  0  0  0  0  0
   12.0000    0.0000    0.0000 C   0  0  0  0  0  0  0  0  0  0  0  0
   12.7500    1.2990    0.0000 C   0  0  0  0  0  0  0  0  0  0  0  0
   13.5000    2.5981    0.0000 C   0  0  0  0  0  0  0  0  0  0  0  0
    9.7500    1.2990    0.0000 C   0  0  0  0  0  0  0  0  0  0  0  0
    8.2500    1.2990    0.0000 O   0  0  0  0  0  0  0  0  0  0  0  0
   10.5000    2.5981    0.0000 O   0  0  0  0  0  0  0  0  0  0  0  0
  1  2  1  0
  3  1  1  6
  3  4  1  0
  4  5  1  0
  4  6  1  1
  3  7  1  0
  7  8  2  0
  7  9  1  0
  9 10  1  0
 10 11  1  0
 11 12  1  0
 12 13  1  0
 13 14  2  0
 14 15  1  0
 15 16  2  0
 16 17  1  0
 17 18  2  0
  9 19  1  0
 19 20  1  0
 20 21  2  0
 20 22  1  0
 22 23  1  0
 23 24  1  6
 24 25  1  0
 25 26  3  0
 23 27  1  0
 27 28  2  0
 27 29  1  0
 18 13  1  0
M  END
$$$$

     RDKit          2D

 29 29  0  0  0  0  0  0  0  0999 V2000
    5.2500   -6.4952    0.0000 N   0  0  0  0  0  0  0  0  0  0  0  0
    6.0000   -7.7942    0.0000 C   0  0  0  0  0  0  0  0  0  0  0  0
    5.2500   -9.0933    0.0000 C   0  0  0  0  0  0  0  0  0  0  0  0
    6.0000  -10.3923    0.0000 C   0  0  0  0  0  0  0  0  0  0  0  0
    3.7500   -9.0933    0.0000 C   0  0  0  0  0  0  0  0  0  0  0  0
    6.0000   -5.1962    0.0000 C   0  0  0  0  0  0  0  0  0  0  0  0
    5.2500   -3.8971    0.0000 C   0  0  0  0  0  0  0  0  0  0  0  0
    3.7500   -3.8971    0.0000 O   0  0  0  0  0  0  0  0  0  0  0  0
    6.0000   -2.5981    0.0000 N   0  0  0  0  0  0  0  0  0  0  0  0
    5.2500   -1.2990    0.0000 C   0  0  0  0  0  0  0  0  0  0  0  0
    3.7500   -1.2990    0.0000 C   0  0  0  0  0  0  0  0  0  0  0  0
    3.0000    0.0000    0.0000 O   0  0  0  0  0  0  0  0  0  0  0  0
    1.5000    0.0000    0.0000 C   0  0  0  0  0  0  0  0  0  0  0  0
    0.7500   -1.2990    0.0000 C   0  0  0  0  0  0  0  0  0  0  0  0
   -0.7500   -1.2990    0.0000 C   0  0  0  0  0  0  0  0  0  0  0  0
   -1.5000    0.0000    0.0000 C   0  0  0  0  0  0  0  0  0  0  0  0
   -0.7500    1.2990    0.0000 C   0  0  0  0  0  0  0  0  0  0  0  0
    0.7500    1.2990    0.0000 C   0  0  0  0  0  0  0  0  0  0  0  0
    7.5000   -2.5981    0.0000 C   0  0  0  0  0  0  0  0  0  0  0  0
    8.2500   -3.8971    0.0000 C   0  0  0  0  0  0  0  0  0  0  0  0
    7.5000   -5.1962    0.0000 O   0  0  0  0  0  0  0  0  0  0  0  0
    9.7500   -3.8971    0.0000 N   0  0  0  0  0  0  0  0  0  0  0  0
   10.5000   -5.1962    0.0000 C   0  0  0  0  0  0  0  0  0  0  0  0
   12.0000   -5.1962    0.0000 C   0  0  0  0  0  0  0  0  0  0  0  0
   12.7500   -6.4952    0.0000 C   0  0  0  0  0  0  0  0  0  0  0  0
   13.5000   -7.7942    0.0000 C   0  0  0  0  0  0  0  0  0  0  0  0
    9.7500   -6.4952    0.0000 C   0  0  0  0  0  0  0  0  0  0  0  0
    8.2500   -6.4952    0.0000 O   0  0  0  0  0  0  0  0  0  0  0  0
   10.5000   -7.7942    0.0000 O   0  0  0  0  0  0  0  0  0  0  0  0
  1  2  1  0
  2  3  1  0
  3  4  1  0
  3  5  1  0
  1  6  1  0
  6  7  1  0
  7  8  2  0
  7  9  1  0
  9 10  1  0
 10 11  1  0
 11 12  1  0
 12 13  1  0
 13 14  2  0
 14 15  1  0
 15 16  2  0
 16 17  1  0
 17 18  2  0
  9 19  1  0
 19 20  1  0
 20 21  2  0
 20 22  1  0
 22 23  1  0
 23 24  1  1
 24 25  1  0
 25 26  3  0
 23 27  1  0
 27 28  2  0
 27 29  1  0
 18 13  1  0
M  END
$$$$

     RDKit          2D

 32 32  0  0  0  0  0  0  0  0999 V2000
    5.2500   -6.4952    0.0000 N   0  0  0  0  0  0  0  0  0  0  0  0
    6.0000   -7.7942    0.0000 C   0  0  0  0  0  0  0  0  0  0  0  0
    5.2500   -9.0933    0.0000 C   0  0  0  0  0  0  0  0  0  0  0  0
    6.0000  -10.3923    0.0000 C   0  0  0  0  0  0  0  0  0  0  0  0
    5.2500  -11.6913    0.0000 O   0  0  0  0  0  0  0  0  0  0  0  0
    6.0000  -12.9904    0.0000 C   0  0  0  0  0  0  0  0  0  0  0  0
    5.2500  -14.2894    0.0000 C   0  0  0  0  0  0  0  0  0  0  0  0
    7.5000  -12.9904    0.0000 C   0  0  0  0  0  0  0  0  0  0  0  0
    6.0000   -5.1962    0.0000 C   0  0  0  0  0  0  0  0  0  0  0  0
    5.2500   -3.8971    0.0000 C   0  0  0  0  0  0  0  0  0  0  0  0
    3.7500   -3.8971    0.0000 O   0  0  0  0  0  0  0  0  0  0  0  0
    6.0000   -2.5981    0.0000 N   0  0  0  0  0  0  0  0  0  0  0  0
    5.2500   -1.2990    0.0000 C   0  0  0  0  0  0  0  0  0  0  0  0
    3.7500   -1.2990    0.0000 C   0  0  0  0  0  0  0  0  0  0  0  0
    3.0000    0.0000    0.0000 O   0  0  0  0  0  0  0  0  0  0  0  0
    1.5000    0.0000    0.0000 C   0  0  0  0  0  0  0  0  0  0  0  0
    0.7500   -1.2990    0.0000 C   0  0  0  0  0  0  0  0  0  0  0  0
   -0.7500   -1.2990    0.0000 C   0  0  0  0  0  0  0  0  0  0  0  0
   -1.5000    0.0000    0.0000 C   0  0  0  0  0  0  0  0  0  0  0  0
   -0.7500    1.2990    0.0000 C   0  0  0  0  0  0  0  0  0  0  0  0
    0.7500    1.2990    0.0000 C   0  0  0  0  0  0  0  0  0  0  0  0
    7.5000   -2.5981    0.0000 C   0  0  0  0  0  0  0  0  0  0  0  0
    8.2500   -3.8971    0.0000 C   0  0  0  0  0  0  0  0  0  0  0  0
    7.5000   -5.1962    0.0000 O   0  0  0  0  0  0  0  0  0  0  0  0
    9.7500   -3.8971    0.0000 N   0  0  0  0  0  0  0  0  0  0  0  0
   10.5000   -5.1962    0.0000 C   0  0  0  0  0  0  0  0  0  0  0  0
   12.0000   -5.1962    0.0000 C   0  0  0  0  0  0  0  0  0  0  0  0
   12.7500   -6.4952    0.0000 C   0  0  0  0  0  0  0  0  0  0  0  0
   13.5000   -7.7942    0.0000 C   0  0  0  0  0  0  0  0  0  0  0  0
    9.7500   -6.4952    0.0000 C   0  0  0  0  0  0  0  0  0  0  0  0
    8.2500   -6.4952    0.0000 O   0  0  0  0  0  0  0  0  0  0  0  0
   10.5000   -7.7942    0.0000 O   0  0  0  0  0  0  0  0  0  0  0  0
  1  2  1  0
  2  3  1  0
  3  4  1  0
  4  5  1  0
  5  6  1  0
  6  7  1  0
  6  8  1  0
  1  9  1  0
  9 10  1  0
 10 11  2  0
 10 12  1  0
 12 13  1  0
 13 14  1  0
 14 15  1  0
 15 16  1  0
 16 17  2  0
 17 18  1  0
 18 19  2  0
 19 20  1  0
 20 21  2  0
 12 22  1  0
 22 23  1  0
 23 24  2  0
 23 25  1  0
 25 26  1  0
 26 27  1  1
 27 28  1  0
 28 29  3  0
 26 30  1  0
 30 31  2  0
 30 32  1  0
 21 16  1  0
M  END
$$$$

     RDKit          2D

 34 35  0  0  0  0  0  0  0  0999 V2000
    0.7500   -6.4952    0.0000 N   0  0  0  0  0  0  0  0  0  0  0  0
    1.5000   -5.1962    0.0000 C   0  0  0  0  0  0  0  0  0  0  0  0
    0.7500   -3.8971    0.0000 C   0  0  0  0  0  0  0  0  0  0  0  0
    1.5000   -2.5981    0.0000 O   0  0  0  0  0  0  0  0  0  0  0  0
    0.7500   -1.2990    0.0000 C   0  0  0  0  0  0  0  0  0  0  0  0
    1.5000    0.0000    0.0000 C   0  0  0  0  0  0  0  0  0  0  0  0
    0.7500    1.2990    0.0000 C   0  0  0  0  0  0  0  0  0  0  0  0
   -0.7500    1.2990    0.0000 C   0  0  0  0  0  0  0  0  0  0  0  0
   -1.5000    0.0000    0.0000 C   0  0  0  0  0  0  0  0  0  0  0  0
   -0.7500   -1.2990    0.0000 C   0  0  0  0  0  0  0  0  0  0  0  0
    1.5000   -7.7942    0.0000 C   0  0  0  0  0  0  0  0  0  0  0  0
    0.7500   -9.0933    0.0000 C   0  0  0  0  0  0  0  0  0  0  0  0
   -0.7500   -9.0933    0.0000 O   0  0  0  0  0  0  0  0  0  0  0  0
    1.5000  -10.3923    0.0000 N   0  0  0  0  0  0  0  0  0  0  0  0
    0.7500  -11.6913    0.0000 C   0  0  0  0  0  0  0  0  0  0  0  0
    1.5000  -12.9904    0.0000 C   0  0  0  0  0  0  0  0  0  0  0  0
    0.7500  -14.2894    0.0000 O   0  0  0  0  0  0  0  0  0  0  0  0
    1.5000  -15.5885    0.0000 C   0  0  0  0  0  0  0  0  0  0  0  0
    0.7500  -16.8875    0.0000 C   0  0  0  0  0  0  0  0  0  0  0  0
    1.5000  -18.1865    0.0000 C   0  0  0  0  0  0  0  0  0  0  0  0
    3.0000  -18.1865    0.0000 C   0  0  0  0  0  0  0  0  0  0  0  0
    3.7500  -16.8875    0.0000 C   0  0  0  0  0  0  0  0  0  0  0  0
    3.0000  -15.5885    0.0000 C   0  0  0  0  0  0  0  0  0  0  0  0
    3.0000  -10.3923    0.0000 C   0  0  0  0  0  0  0  0  0  0  0  0
    3.7500  -11.6913    0.0000 C   0  0  0  0  0  0  0  0  0  0  0  0
    3.0000  -12.9904    0.0000 O   0  0  0  0  0  0  0  0  0  0  0  0
    5.2500  -11.6913    0.0000 N   0  0  0  0  0  0  0  0  0  0  0  0
    6.0000  -12.9904    0.0000 C   0  0  0  0  0  0  0  0  0  0  0  0
    7.5000  -12.9904    0.0000 C   0  0  0  0  0  0  0  0  0  0  0  0
    8.2500  -14.2894    0.0000 C   0  0  0  0  0  0  0  0  0  0  0  0
    9.0000  -15.5885    0.0000 C   0  0  0  0  0  0  0  0  0  0  0  0
    5.2500  -14.2894    0.0000 C   0  0  0  0  0  0  0  0  0  0  0  0
    3.7500  -14.2894    0.0000 O   0  0  0  0  0  0  0  0  0  0  0  0
    6.0000  -15.5885    0.0000 O   0  0  0  0  0  0  0  0  0  0  0  0
  1  2  1  0
  2  3  1  0
  3  4  1  0
  4  5  1  0
  5  6  2  0
  6  7  1  0
  7  8  2  0
  8  9  1  0
  9 10  2  0
  1 11  1  0
 11 12  1  0
 12 13  2  0
 12 14  1  0
 14 15  1  0
 15 16  1  0
 16 17  1  0
 17 18  1  0
 18 19  2  0
 19 20  1  0
 20 21  2  0
 21 22  1  0
 22 23  2  0
 14 24  1  0
 24 25  1  0
 25 26  2  0
 25 27  1  0
 27 28  1  0
 28 29  1  1
 29 30  1  0
 30 31  3  0
 28 32  1  0
 32 33  2  0
 32 34  1  0
 10  5  1  0
 23 18  1  0
M  END
$$$$

     RDKit          2D

 37 38  0  0  0  0  0  0  0  0999 V2000
    1.5000   -5.1962    0.0000 N   0  0  0  0  0  0  0  0  0  0  0  0
    0.7500   -3.8971    0.0000 C   0  0  0  0  0  0  0  0  0  0  0  0
    1.5000   -2.5981    0.0000 C   0  0  0  0  0  0  0  0  0  0  0  0
    0.7500   -1.2990    0.0000 C   0  0  0  0  0  0  0  0  0  0  0  0
    1.5000    0.0000    0.0000 C   0  0  0  0  0  0  0  0  0  0  0  0
    0.7500    1.2990    0.0000 C   0  0  0  0  0  0  0  0  0  0  0  0
   -0.7500    1.2990    0.0000 C   0  0  0  0  0  0  0  0  0  0  0  0
   -1.5000    0.0000    0.0000 C   0  0  0  0  0  0  0  0  0  0  0  0
   -3.0000    0.0000    0.0000 O   0  0  0  0  0  0  0  0  0  0  0  0
   -3.7500   -1.2990    0.0000 C   0  0  0  0  0  0  0  0  0  0  0  0
   -0.7500   -1.2990    0.0000 C   0  0  0  0  0  0  0  0  0  0  0  0
   -1.5000    2.5981    0.0000 O   0  0  0  0  0  0  0  0  0  0  0  0
   -0.7500    3.8971    0.0000 C   0  0  0  0  0  0  0  0  0  0  0  0
    0.7500   -6.4952    0.0000 C   0  0  0  0  0  0  0  0  0  0  0  0
    1.5000   -7.7942    0.0000 C   0  0  0  0  0  0  0  0  0  0  0  0
    3.0000   -7.7942    0.0000 O   0  0  0  0  0  0  0  0  0  0  0  0
    0.7500   -9.0933    0.0000 N   0  0  0  0  0  0  0  0  0  0  0  0
    1.5000  -10.3923    0.0000 C   0  0  0  0  0  0  0  0  0  0  0  0
    0.7500  -11.6913    0.0000 C   0  0  0  0  0  0  0  0  0  0  0  0
    1.5000  -12.9904    0.0000 O   0  0  0  0  0  0  0  0  0  0  0  0
    0.7500  -14.2894    0.0000 C   0  0  0  0  0  0  0  0  0  0  0  0
   -0.7500  -14.2894    0.0000 C   0  0  0  0  0  0  0  0  0  0  0  0
   -1.5000  -15.5885    0.0000 C   0  0  0  0  0  0  0  0  0  0  0  0
   -0.7500  -16.8875    0.0000 C   0  0  0  0  0  0  0  0  0  0  0  0
    0.7500  -16.8875    0.0000 C   0  0  0  0  0  0  0  0  0  0  0  0
    1.5000  -15.5885    0.0000 C   0  0  0  0  0  0  0  0  0  0  0  0
   -0.7500   -9.0933    0.0000 C   0  0  0  0  0  0  0  0  0  0  0  0
   -1.5000  -10.3923    0.0000 C   0  0  0  0  0  0  0  0  0  0  0  0
   -0.7500  -11.6913    0.0000 O   0  0  0  0  0  0  0  0  0  0  0  0
   -3.0000  -10.3923    0.0000 N   0  0  0  0  0  0  0  0  0  0  0  0
   -3.7500  -11.6913    0.0000 C   0  0  0  0  0  0  0  0  0  0  0  0
   -5.2500  -11.6913    0.0000 C   0  0  0  0  0  0  0  0  0  0  0  0
   -6.0000  -12.9904    0.0000 C   0  0  0  0  0  0  0  0  0  0  0  0
   -6.7500  -14.2894    0.0000 C   0  0  0  0  0  0  0  0  0  0  0  0
   -3.0000  -12.9904    0.0000 C   0  0  0  0  0  0  0  0  0  0  0  0
   -1.5000  -12.9904    0.0000 O   0  0  0  0  0  0  0  0  0  0  0  0
   -3.7500  -14.2894    0.0000 O   0  0  0  0  0  0  0  0  0  0  0  0
  1  2  1  0
  2  3  1  0
  3  4  1  0
  4  5  2  0
  5  6  1  0
  6  7  2  0
  7  8  1  0
  8  9  1  0
  9 10  1  0
  8 11  2  0
  7 12  1  0
 12 13  1  0
  1 14  1  0
 14 15  1  0
 15 16  2  0
 15 17  1  0
 17 18  1  0
 18 19  1  0
 19 20  1  0
 20 21  1  0
 21 22  2  0
 22 23  1  0
 23 24  2  0
 24 25  1  0
 25 26  2  0
 17 27  1  0
 27 28  1  0
 28 29  2  0
 28 30  1  0
 30 31  1  0
 31 32  1  6
 32 33  1  0
 33 34  3  0
 31 35  1  0
 35 36  2  0
 35 37  1  0
 11  4  1  0
 26 21  1  0
M  END
$$$$

     RDKit          2D

 44 45  0  0  0  0  0  0  0  0999 V2000
   -6.8533  -11.4279    0.0000 N   0  0  0  0  0  0  0  0  0  0  0  0
   -7.8570  -10.3132    0.0000 C   0  0  0  0  0  0  0  0  0  0  0  0
   -9.3242  -10.6251    0.0000 C   0  0  0  0  0  0  0  0  0  0  0  0
   -9.7877  -12.0517    0.0000 C   0  0  0  0  0  0  0  0  0  0  0  0
  -11.2549  -12.3635    0.0000 C   0  0  0  0  0  0  0  0  0  0  0  0
   -8.7840  -13.1664    0.0000 C   0  0  0  0  0  0  0  0  0  0  0  0
   -7.3934   -8.8866    0.0000 C   0  0  0  0  0  0  0  0  0  0  0  0
   -8.3971   -7.7719    0.0000 O   0  0  0  0  0  0  0  0  0  0  0  0
   -5.9262   -8.5748    0.0000 N   0  0  0  0  0  0  0  0  0  0  0  0
   -5.4627   -7.1482    0.0000 C   0  0  0  0  0  0  0  0  0  0  0  0
   -6.4664   -6.0335    0.0000 C   0  0  0  0  0  0  0  0  0  0  0  0
   -6.0029   -4.6069    0.0000 C   0  0  0  0  0  0  0  0  0  0  0  0
   -7.0066   -3.4922    0.0000 C   0  0  0  0  0  0  0  0  0  0  0  0
   -4.5356   -4.2950    0.0000 C   0  0  0  0  0  0  0  0  0  0  0  0
   -3.9955   -6.8363    0.0000 C   0  0  0  0  0  0  0  0  0  0  0  0
   -3.5320   -5.4097    0.0000 O   0  0  0  0  0  0  0  0  0  0  0  0
   -2.9918   -7.9510    0.0000 N   0  0  0  0  0  0  0  0  0  0  0  0
   -3.3037   -9.4182    0.0000 C   0  0  0  0  0  0  0  0  0  0  0  0
   -2.0046  -10.1682    0.0000 C   0  0  0  0  0  0  0  0  0  0  0  0
   -0.8899   -9.1645    0.0000 C   0  0  0  0  0  0  0  0  0  0  0  0
   -1.5000   -7.7942    0.0000 C   0  0  0  0  0  0  0  0  0  0  0  0
   -0.7500   -6.4952    0.0000 C   0  0  0  0  0  0  0  0  0  0  0  0
   -1.5000   -5.1962    0.0000 O   0  0  0  0  0  0  0  0  0  0  0  0
    0.7500   -6.4952    0.0000 N   0  0  0  0  0  0  0  0  0  0  0  0
    1.5000   -5.1962    0.0000 C   0  0  0  0  0  0  0  0  0  0  0  0
    0.7500   -3.8971    0.0000 C   0  0  0  0  0  0  0  0  0  0  0  0
    1.5000   -2.5981    0.0000 O   0  0  0  0  0  0  0  0  0  0  0  0
    0.7500   -1.2990    0.0000 C   0  0  0  0  0  0  0  0  0  0  0  0
    1.5000    0.0000    0.0000 C   0  0  0  0  0  0  0  0  0  0  0  0
    0.7500    1.2990    0.0000 C   0  0  0  0  0  0  0  0  0  0  0  0
   -0.7500    1.2990    0.0000 C   0  0  0  0  0  0  0  0  0  0  0  0
   -1.5000    0.0000    0.0000 C   0  0  0  0  0  0  0  0  0  0  0  0
   -0.7500   -1.2990    0.0000 C   0  0  0  0  0  0  0  0  0  0  0  0
    1.5000   -7.7942    0.0000 C   0  0  0  0  0  0  0  0  0  0  0  0
    3.0000   -7.7942    0.0000 C   0  0  0  0  0  0  0  0  0  0  0  0
    3.7500   -6.4952    0.0000 O   0  0  0  0  0  0  0  0  0  0  0  0
    3.7500   -9.0933    0.0000 N   0  0  0  0  0  0  0  0  0  0  0  0
    5.2500   -9.0933    0.0000 C   0  0  0  0  0  0  0  0  0  0  0  0
    6.0000  -10.3923    0.0000 C   0  0  0  0  0  0  0  0  0  0  0  0
    7.5000  -10.3923    0.0000 C   0  0  0  0  0  0  0  0  0  0  0  0
    9.0000  -10.3923    0.0000 C   0  0  0  0  0  0  0  0  0  0  0  0
    6.0000   -7.7942    0.0000 C   0  0  0  0  0  0  0  0  0  0  0  0
    5.2500   -6.4952    0.0000 O   0  0  0  0  0  0  0  0  0  0  0  0
    7.5000   -7.7942    0.0000 O   0  0  0  0  0  0  0  0  0  0  0  0
  2  1  1  1
  2  3  1  0
  3  4  1  0
  4  5  1  0
  4  6  1  0
  2  7  1  0
  7  8  2  0
  7  9  1  0
  9 10  1  0
 10 11  1  1
 11 12  1  0
 12 13  1  0
 12 14  1  0
 10 15  1  0
 15 16  2  0
 15 17  1  0
 17 18  1  0
 18 19  1  0
 19 20  1  0
 20 21  1  0
 21 22  1  6
 22 23  2  0
 22 24  1  0
 24 25  1  0
 25 26  1  0
 26 27  1  0
 27 28  1  0
 28 29  2  0
 29 30  1  0
 30 31  2  0
 31 32  1  0
 32 33  2  0
 24 34  1  0
 34 35  1  0
 35 36  2  0
 35 37  1  0
 37 38  1  0
 38 39  1  6
 39 40  1  0
 40 41  3  0
 38 42  1  0
 42 43  2  0
 42 44  1  0
 33 28  1  0
 21 17  1  0
M  END
$$$$

     RDKit          2D

 44 45  0  0  0  0  0  0  0  0999 V2000
   -6.8533  -11.4279    0.0000 N   0  0  0  0  0  0  0  0  0  0  0  0
   -7.8570  -10.3132    0.0000 C   0  0  0  0  0  0  0  0  0  0  0  0
   -9.3242  -10.6251    0.0000 C   0  0  0  0  0  0  0  0  0  0  0  0
   -9.7877  -12.0517    0.0000 C   0  0  0  0  0  0  0  0  0  0  0  0
  -11.2549  -12.3635    0.0000 C   0  0  0  0  0  0  0  0  0  0  0  0
   -8.7840  -13.1664    0.0000 C   0  0  0  0  0  0  0  0  0  0  0  0
   -7.3934   -8.8866    0.0000 C   0  0  0  0  0  0  0  0  0  0  0  0
   -8.3971   -7.7719    0.0000 O   0  0  0  0  0  0  0  0  0  0  0  0
   -5.9262   -8.5748    0.0000 N   0  0  0  0  0  0  0  0  0  0  0  0
   -5.4627   -7.1482    0.0000 C   0  0  0  0  0  0  0  0  0  0  0  0
   -6.4664   -6.0335    0.0000 C   0  0  0  0  0  0  0  0  0  0  0  0
   -6.0029   -4.6069    0.0000 C   0  0  0  0  0  0  0  0  0  0  0  0
   -7.0066   -3.4922    0.0000 C   0  0  0  0  0  0  0  0  0  0  0  0
   -4.5356   -4.2950    0.0000 C   0  0  0  0  0  0  0  0  0  0  0  0
   -3.9955   -6.8363    0.0000 C   0  0  0  0  0  0  0  0  0  0  0  0
   -3.5320   -5.4097    0.0000 O   0  0  0  0  0  0  0  0  0  0  0  0
   -2.9918   -7.9510    0.0000 N   0  0  0  0  0  0  0  0  0  0  0  0
   -3.3037   -9.4182    0.0000 C   0  0  0  0  0  0  0  0  0  0  0  0
   -2.0046  -10.1682    0.0000 C   0  0  0  0  0  0  0  0  0  0  0  0
   -0.8899   -9.1645    0.0000 C   0  0  0  0  0  0  0  0  0  0  0  0
   -1.5000   -7.7942    0.0000 C   0  0  0  0  0  0  0  0  0  0  0  0
   -0.7500   -6.4952    0.0000 C   0  0  0  0  0  0  0  0  0  0  0  0
   -1.5000   -5.1962    0.0000 O   0  0  0  0  0  0  0  0  0  0  0  0
    0.7500   -6.4952    0.0000 N   0  0  0  0  0  0  0  0  0  0  0  0
    1.5000   -5.1962    0.0000 C   0  0  0  0  0  0  0  0  0  0  0  0
    0.7500   -3.8971    0.0000 C   0  0  0  0  0  0  0  0  0  0  0  0
    1.5000   -2.5981    0.0000 O   0  0  0  0  0  0  0  0  0  0  0  0
    0.7500   -1.2990    0.0000 C   0  0  0  0  0  0  0  0  0  0  0  0
    1.5000    0.0000    0.0000 C   0  0  0  0  0  0  0  0  0  0  0  0
    0.7500    1.2990    0.0000 C   0  0  0  0  0  0  0  0  0  0  0  0
   -0.7500    1.2990    0.0000 C   0  0  0  0  0  0  0  0  0  0  0  0
   -1.5000    0.0000    0.0000 C   0  0  0  0  0  0  0  0  0  0  0  0
   -0.7500   -1.2990    0.0000 C   0  0  0  0  0  0  0  0  0  0  0  0
    1.5000   -7.7942    0.0000 C   0  0  0  0  0  0  0  0  0  0  0  0
    3.0000   -7.7942    0.0000 C   0  0  0  0  0  0  0  0  0  0  0  0
    3.7500   -6.4952    0.0000 O   0  0  0  0  0  0  0  0  0  0  0  0
    3.7500   -9.0933    0.0000 N   0  0  0  0  0  0  0  0  0  0  0  0
    5.2500   -9.0933    0.0000 C   0  0  0  0  0  0  0  0  0  0  0  0
    6.0000  -10.3923    0.0000 C   0  0  0  0  0  0  0  0  0  0  0  0
    7.5000  -10.3923    0.0000 C   0  0  0  0  0  0  0  0  0  0  0  0
    9.0000  -10.3923    0.0000 C   0  0  0  0  0  0  0  0  0  0  0  0
    6.0000   -7.7942    0.0000 C   0  0  0  0  0  0  0  0  0  0  0  0
    5.2500   -6.4952    0.0000 O   0  0  0  0  0  0  0  0  0  0  0  0
    7.5000   -7.7942    0.0000 O   0  0  0  0  0  0  0  0  0  0  0  0
  2  1  1  6
  2  3  1  0
  3  4  1  0
  4  5  1  0
  4  6  1  0
  2  7  1  0
  7  8  2  0
  7  9  1  0
  9 10  1  0
 10 11  1  1
 11 12  1  0
 12 13  1  0
 12 14  1  0
 10 15  1  0
 15 16  2  0
 15 17  1  0
 17 18  1  0
 18 19  1  0
 19 20  1  0
 20 21  1  0
 21 22  1  6
 22 23  2  0
 22 24  1  0
 24 25  1  0
 25 26  1  0
 26 27  1  0
 27 28  1  0
 28 29  2  0
 29 30  1  0
 30 31  2  0
 31 32  1  0
 32 33  2  0
 24 34  1  0
 34 35  1  0
 35 36  2  0
 35 37  1  0
 37 38  1  0
 38 39  1  6
 39 40  1  0
 40 41  3  0
 38 42  1  0
 42 43  2  0
 42 44  1  0
 33 28  1  0
 21 17  1  0
M  END
$$$$

     RDKit          2D

 45 46  0  0  0  0  0  0  0  0999 V2000
   -6.8533  -11.4279    0.0000 N   0  0  0  0  0  0  0  0  0  0  0  0
   -7.3168  -12.8545    0.0000 C   0  0  0  0  0  0  0  0  0  0  0  0
   -7.8570  -10.3132    0.0000 C   0  0  0  0  0  0  0  0  0  0  0  0
   -9.3242  -10.6251    0.0000 C   0  0  0  0  0  0  0  0  0  0  0  0
   -9.7877  -12.0517    0.0000 C   0  0  0  0  0  0  0  0  0  0  0  0
  -11.2549  -12.3635    0.0000 C   0  0  0  0  0  0  0  0  0  0  0  0
   -8.7840  -13.1664    0.0000 C   0  0  0  0  0  0  0  0  0  0  0  0
   -7.3934   -8.8866    0.0000 C   0  0  0  0  0  0  0  0  0  0  0  0
   -8.3971   -7.7719    0.0000 O   0  0  0  0  0  0  0  0  0  0  0  0
   -5.9262   -8.5748    0.0000 N   0  0  0  0  0  0  0  0  0  0  0  0
   -5.4627   -7.1482    0.0000 C   0  0  0  0  0  0  0  0  0  0  0  0
   -6.4664   -6.0335    0.0000 C   0  0  0  0  0  0  0  0  0  0  0  0
   -6.0029   -4.6069    0.0000 C   0  0  0  0  0  0  0  0  0  0  0  0
   -4.5356   -4.2950    0.0000 C   0  0  0  0  0  0  0  0  0  0  0  0
   -7.0066   -3.4922    0.0000 C   0  0  0  0  0  0  0  0  0  0  0  0
   -3.9955   -6.8363    0.0000 C   0  0  0  0  0  0  0  0  0  0  0  0
   -3.5320   -5.4097    0.0000 O   0  0  0  0  0  0  0  0  0  0  0  0
   -2.9918   -7.9510    0.0000 N   0  0  0  0  0  0  0  0  0  0  0  0
   -3.3037   -9.4182    0.0000 C   0  0  0  0  0  0  0  0  0  0  0  0
   -2.0046  -10.1682    0.0000 C   0  0  0  0  0  0  0  0  0  0  0  0
   -0.8899   -9.1645    0.0000 C   0  0  0  0  0  0  0  0  0  0  0  0
   -1.5000   -7.7942    0.0000 C   0  0  0  0  0  0  0  0  0  0  0  0
   -0.7500   -6.4952    0.0000 C   0  0  0  0  0  0  0  0  0  0  0  0
   -1.5000   -5.1962    0.0000 O   0  0  0  0  0  0  0  0  0  0  0  0
    0.7500   -6.4952    0.0000 N   0  0  0  0  0  0  0  0  0  0  0  0
    1.5000   -5.1962    0.0000 C   0  0  0  0  0  0  0  0  0  0  0  0
    0.7500   -3.8971    0.0000 C   0  0  0  0  0  0  0  0  0  0  0  0
    1.5000   -2.5981    0.0000 O   0  0  0  0  0  0  0  0  0  0  0  0
    0.7500   -1.2990    0.0000 C   0  0  0  0  0  0  0  0  0  0  0  0
    1.5000    0.0000    0.0000 C   0  0  0  0  0  0  0  0  0  0  0  0
    0.7500    1.2990    0.0000 C   0  0  0  0  0  0  0  0  0  0  0  0
   -0.7500    1.2990    0.0000 C   0  0  0  0  0  0  0  0  0  0  0  0
   -1.5000    0.0000    0.0000 C   0  0  0  0  0  0  0  0  0  0  0  0
   -0.7500   -1.2990    0.0000 C   0  0  0  0  0  0  0  0  0  0  0  0
    1.5000   -7.7942    0.0000 C   0  0  0  0  0  0  0  0  0  0  0  0
    3.0000   -7.7942    0.0000 C   0  0  0  0  0  0  0  0  0  0  0  0
    3.7500   -6.4952    0.0000 O   0  0  0  0  0  0  0  0  0  0  0  0
    3.7500   -9.0933    0.0000 N   0  0  0  0  0  0  0  0  0  0  0  0
    5.2500   -9.0933    0.0000 C   0  0  0  0  0  0  0  0  0  0  0  0
    6.0000  -10.3923    0.0000 C   0  0  0  0  0  0  0  0  0  0  0  0
    7.5000  -10.3923    0.0000 C   0  0  0  0  0  0  0  0  0  0  0  0
    9.0000  -10.3923    0.0000 C   0  0  0  0  0  0  0  0  0  0  0  0
    6.0000   -7.7942    0.0000 C   0  0  0  0  0  0  0  0  0  0  0  0
    5.2500   -6.4952    0.0000 O   0  0  0  0  0  0  0  0  0  0  0  0
    7.5000   -7.7942    0.0000 O   0  0  0  0  0  0  0  0  0  0  0  0
  1  2  1  0
  1  3  1  0
  3  4  1  1
  4  5  1  0
  5  6  1  0
  5  7  1  0
  3  8  1  0
  8  9  2  0
  8 10  1  0
 10 11  1  0
 11 12  1  1
 12 13  1  0
 13 14  1  0
 13 15  1  0
 11 16  1  0
 16 17  2  0
 16 18  1  0
 18 19  1  0
 19 20  1  0
 20 21  1  0
 21 22  1  0
 22 23  1  6
 23 24  2  0
 23 25  1  0
 25 26  1  0
 26 27  1  0
 27 28  1  0
 28 29  1  0
 29 30  2  0
 30 31  1  0
 31 32  2  0
 32 33  1  0
 33 34  2  0
 25 35  1  0
 35 36  1  0
 36 37  2  0
 36 38  1  0
 38 39  1  0
 39 40  1  6
 40 41  1  0
 41 42  3  0
 39 43  1  0
 43 44  2  0
 43 45  1  0
 34 29  1  0
 22 18  1  0
M  END
$$$$

     RDKit          2D

 45 46  0  0  0  0  0  0  0  0999 V2000
   -6.8533  -11.4279    0.0000 N   0  0  0  0  0  0  0  0  0  0  0  0
   -7.3168  -12.8545    0.0000 C   0  0  0  0  0  0  0  0  0  0  0  0
   -7.8570  -10.3132    0.0000 C   0  0  0  0  0  0  0  0  0  0  0  0
   -9.3242  -10.6251    0.0000 C   0  0  0  0  0  0  0  0  0  0  0  0
   -9.7877  -12.0517    0.0000 C   0  0  0  0  0  0  0  0  0  0  0  0
  -11.2549  -12.3635    0.0000 C   0  0  0  0  0  0  0  0  0  0  0  0
   -8.7840  -13.1664    0.0000 C   0  0  0  0  0  0  0  0  0  0  0  0
   -7.3934   -8.8866    0.0000 C   0  0  0  0  0  0  0  0  0  0  0  0
   -8.3971   -7.7719    0.0000 O   0  0  0  0  0  0  0  0  0  0  0  0
   -5.9262   -8.5748    0.0000 N   0  0  0  0  0  0  0  0  0  0  0  0
   -5.4627   -7.1482    0.0000 C   0  0  0  0  0  0  0  0  0  0  0  0
   -6.4664   -6.0335    0.0000 C   0  0  0  0  0  0  0  0  0  0  0  0
   -6.0029   -4.6069    0.0000 C   0  0  0  0  0  0  0  0  0  0  0  0
   -4.5356   -4.2950    0.0000 C   0  0  0  0  0  0  0  0  0  0  0  0
   -7.0066   -3.4922    0.0000 C   0  0  0  0  0  0  0  0  0  0  0  0
   -3.9955   -6.8363    0.0000 C   0  0  0  0  0  0  0  0  0  0  0  0
   -3.5320   -5.4097    0.0000 O   0  0  0  0  0  0  0  0  0  0  0  0
   -2.9918   -7.9510    0.0000 N   0  0  0  0  0  0  0  0  0  0  0  0
   -3.3037   -9.4182    0.0000 C   0  0  0  0  0  0  0  0  0  0  0  0
   -2.0046  -10.1682    0.0000 C   0  0  0  0  0  0  0  0  0  0  0  0
   -0.8899   -9.1645    0.0000 C   0  0  0  0  0  0  0  0  0  0  0  0
   -1.5000   -7.7942    0.0000 C   0  0  0  0  0  0  0  0  0  0  0  0
   -0.7500   -6.4952    0.0000 C   0  0  0  0  0  0  0  0  0  0  0  0
   -1.5000   -5.1962    0.0000 O   0  0  0  0  0  0  0  0  0  0  0  0
    0.7500   -6.4952    0.0000 N   0  0  0  0  0  0  0  0  0  0  0  0
    1.5000   -5.1962    0.0000 C   0  0  0  0  0  0  0  0  0  0  0  0
    0.7500   -3.8971    0.0000 C   0  0  0  0  0  0  0  0  0  0  0  0
    1.5000   -2.5981    0.0000 O   0  0  0  0  0  0  0  0  0  0  0  0
    0.7500   -1.2990    0.0000 C   0  0  0  0  0  0  0  0  0  0  0  0
    1.5000    0.0000    0.0000 C   0  0  0  0  0  0  0  0  0  0  0  0
    0.7500    1.2990    0.0000 C   0  0  0  0  0  0  0  0  0  0  0  0
   -0.7500    1.2990    0.0000 C   0  0  0  0  0  0  0  0  0  0  0  0
   -1.5000    0.0000    0.0000 C   0  0  0  0  0  0  0  0  0  0  0  0
   -0.7500   -1.2990    0.0000 C   0  0  0  0  0  0  0  0  0  0  0  0
    1.5000   -7.7942    0.0000 C   0  0  0  0  0  0  0  0  0  0  0  0
    3.0000   -7.7942    0.0000 C   0  0  0  0  0  0  0  0  0  0  0  0
    3.7500   -6.4952    0.0000 O   0  0  0  0  0  0  0  0  0  0  0  0
    3.7500   -9.0933    0.0000 N   0  0  0  0  0  0  0  0  0  0  0  0
    5.2500   -9.0933    0.0000 C   0  0  0  0  0  0  0  0  0  0  0  0
    6.0000  -10.3923    0.0000 C   0  0  0  0  0  0  0  0  0  0  0  0
    7.5000  -10.3923    0.0000 C   0  0  0  0  0  0  0  0  0  0  0  0
    9.0000  -10.3923    0.0000 C   0  0  0  0  0  0  0  0  0  0  0  0
    6.0000   -7.7942    0.0000 C   0  0  0  0  0  0  0  0  0  0  0  0
    5.2500   -6.4952    0.0000 O   0  0  0  0  0  0  0  0  0  0  0  0
    7.5000   -7.7942    0.0000 O   0  0  0  0  0  0  0  0  0  0  0  0
  1  2  1  0
  1  3  1  0
  3  4  1  6
  4  5  1  0
  5  6  1  0
  5  7  1  0
  3  8  1  0
  8  9  2  0
  8 10  1  0
 10 11  1  0
 11 12  1  1
 12 13  1  0
 13 14  1  0
 13 15  1  0
 11 16  1  0
 16 17  2  0
 16 18  1  0
 18 19  1  0
 19 20  1  0
 20 21  1  0
 21 22  1  0
 22 23  1  6
 23 24  2  0
 23 25  1  0
 25 26  1  0
 26 27  1  0
 27 28  1  0
 28 29  1  0
 29 30  2  0
 30 31  1  0
 31 32  2  0
 32 33  1  0
 33 34  2  0
 25 35  1  0
 35 36  1  0
 36 37  2  0
 36 38  1  0
 38 39  1  0
 39 40  1  6
 40 41  1  0
 41 42  3  0
 39 43  1  0
 43 44  2  0
 43 45  1  0
 34 29  1  0
 22 18  1  0
M  END
$$$$

     RDKit          2D

 44 45  0  0  0  0  0  0  0  0999 V2000
   -6.8533  -11.4279    0.0000 N   0  0  0  0  0  0  0  0  0  0  0  0
   -7.8570  -10.3132    0.0000 C   0  0  0  0  0  0  0  0  0  0  0  0
   -9.3242  -10.6251    0.0000 C   0  0  0  0  0  0  0  0  0  0  0  0
   -9.7877  -12.0517    0.0000 C   0  0  0  0  0  0  0  0  0  0  0  0
  -11.2549  -12.3635    0.0000 C   0  0  0  0  0  0  0  0  0  0  0  0
   -8.7840  -13.1664    0.0000 C   0  0  0  0  0  0  0  0  0  0  0  0
   -7.3934   -8.8866    0.0000 C   0  0  0  0  0  0  0  0  0  0  0  0
   -8.3971   -7.7719    0.0000 O   0  0  0  0  0  0  0  0  0  0  0  0
   -5.9262   -8.5748    0.0000 N   0  0  0  0  0  0  0  0  0  0  0  0
   -5.4627   -7.1482    0.0000 C   0  0  0  0  0  0  0  0  0  0  0  0
   -6.4664   -6.0335    0.0000 C   0  0  0  0  0  0  0  0  0  0  0  0
   -6.0029   -4.6069    0.0000 C   0  0  0  0  0  0  0  0  0  0  0  0
   -7.0066   -3.4922    0.0000 C   0  0  0  0  0  0  0  0  0  0  0  0
   -4.5356   -4.2950    0.0000 C   0  0  0  0  0  0  0  0  0  0  0  0
   -3.9955   -6.8363    0.0000 C   0  0  0  0  0  0  0  0  0  0  0  0
   -3.5320   -5.4097    0.0000 O   0  0  0  0  0  0  0  0  0  0  0  0
   -2.9918   -7.9510    0.0000 N   0  0  0  0  0  0  0  0  0  0  0  0
   -3.3037   -9.4182    0.0000 C   0  0  0  0  0  0  0  0  0  0  0  0
   -2.0046  -10.1682    0.0000 C   0  0  0  0  0  0  0  0  0  0  0  0
   -0.8899   -9.1645    0.0000 C   0  0  0  0  0  0  0  0  0  0  0  0
   -1.5000   -7.7942    0.0000 C   0  0  0  0  0  0  0  0  0  0  0  0
   -0.7500   -6.4952    0.0000 C   0  0  0  0  0  0  0  0  0  0  0  0
   -1.5000   -5.1962    0.0000 O   0  0  0  0  0  0  0  0  0  0  0  0
    0.7500   -6.4952    0.0000 N   0  0  0  0  0  0  0  0  0  0  0  0
    1.5000   -5.1962    0.0000 C   0  0  0  0  0  0  0  0  0  0  0  0
    0.7500   -3.8971    0.0000 C   0  0  0  0  0  0  0  0  0  0  0  0
    1.5000   -2.5981    0.0000 O   0  0  0  0  0  0  0  0  0  0  0  0
    0.7500   -1.2990    0.0000 C   0  0  0  0  0  0  0  0  0  0  0  0
    1.5000    0.0000    0.0000 C   0  0  0  0  0  0  0  0  0  0  0  0
    0.7500    1.2990    0.0000 C   0  0  0  0  0  0  0  0  0  0  0  0
   -0.7500    1.2990    0.0000 C   0  0  0  0  0  0  0  0  0  0  0  0
   -1.5000    0.0000    0.0000 C   0  0  0  0  0  0  0  0  0  0  0  0
   -0.7500   -1.2990    0.0000 C   0  0  0  0  0  0  0  0  0  0  0  0
    1.5000   -7.7942    0.0000 C   0  0  0  0  0  0  0  0  0  0  0  0
    3.0000   -7.7942    0.0000 C   0  0  0  0  0  0  0  0  0  0  0  0
    3.7500   -6.4952    0.0000 O   0  0  0  0  0  0  0  0  0  0  0  0
    3.7500   -9.0933    0.0000 N   0  0  0  0  0  0  0  0  0  0  0  0
    5.2500   -9.0933    0.0000 C   0  0  0  0  0  0  0  0  0  0  0  0
    6.0000  -10.3923    0.0000 C   0  0  0  0  0  0  0  0  0  0  0  0
    7.5000  -10.3923    0.0000 C   0  0  0  0  0  0  0  0  0  0  0  0
    9.0000  -10.3923    0.0000 C   0  0  0  0  0  0  0  0  0  0  0  0
    6.0000   -7.7942    0.0000 C   0  0  0  0  0  0  0  0  0  0  0  0
    5.2500   -6.4952    0.0000 O   0  0  0  0  0  0  0  0  0  0  0  0
    7.5000   -7.7942    0.0000 O   0  0  0  0  0  0  0  0  0  0  0  0
  2  1  1  1
  2  3  1  0
  3  4  1  0
  4  5  1  0
  4  6  1  0
  2  7  1  0
  7  8  2  0
  7  9  1  0
  9 10  1  0
 10 11  1  6
 11 12  1  0
 12 13  1  0
 12 14  1  0
 10 15  1  0
 15 16  2  0
 15 17  1  0
 17 18  1  0
 18 19  1  0
 19 20  1  0
 20 21  1  0
 21 22  1  6
 22 23  2  0
 22 24  1  0
 24 25  1  0
 25 26  1  0
 26 27  1  0
 27 28  1  0
 28 29  2  0
 29 30  1  0
 30 31  2  0
 31 32  1  0
 32 33  2  0
 24 34  1  0
 34 35  1  0
 35 36  2  0
 35 37  1  0
 37 38  1  0
 38 39  1  6
 39 40  1  0
 40 41  3  0
 38 42  1  0
 42 43  2  0
 42 44  1  0
 33 28  1  0
 21 17  1  0
M  END
$$$$

     RDKit          2D

 44 45  0  0  0  0  0  0  0  0999 V2000
   -6.8533  -11.4279    0.0000 N   0  0  0  0  0  0  0  0  0  0  0  0
   -7.8570  -10.3132    0.0000 C   0  0  0  0  0  0  0  0  0  0  0  0
   -9.3242  -10.6251    0.0000 C   0  0  0  0  0  0  0  0  0  0  0  0
   -9.7877  -12.0517    0.0000 C   0  0  0  0  0  0  0  0  0  0  0  0
  -11.2549  -12.3635    0.0000 C   0  0  0  0  0  0  0  0  0  0  0  0
   -8.7840  -13.1664    0.0000 C   0  0  0  0  0  0  0  0  0  0  0  0
   -7.3934   -8.8866    0.0000 C   0  0  0  0  0  0  0  0  0  0  0  0
   -8.3971   -7.7719    0.0000 O   0  0  0  0  0  0  0  0  0  0  0  0
   -5.9262   -8.5748    0.0000 N   0  0  0  0  0  0  0  0  0  0  0  0
   -5.4627   -7.1482    0.0000 C   0  0  0  0  0  0  0  0  0  0  0  0
   -6.4664   -6.0335    0.0000 C   0  0  0  0  0  0  0  0  0  0  0  0
   -6.0029   -4.6069    0.0000 C   0  0  0  0  0  0  0  0  0  0  0  0
   -7.0066   -3.4922    0.0000 C   0  0  0  0  0  0  0  0  0  0  0  0
   -4.5356   -4.2950    0.0000 C   0  0  0  0  0  0  0  0  0  0  0  0
   -3.9955   -6.8363    0.0000 C   0  0  0  0  0  0  0  0  0  0  0  0
   -3.5320   -5.4097    0.0000 O   0  0  0  0  0  0  0  0  0  0  0  0
   -2.9918   -7.9510    0.0000 N   0  0  0  0  0  0  0  0  0  0  0  0
   -3.3037   -9.4182    0.0000 C   0  0  0  0  0  0  0  0  0  0  0  0
   -2.0046  -10.1682    0.0000 C   0  0  0  0  0  0  0  0  0  0  0  0
   -0.8899   -9.1645    0.0000 C   0  0  0  0  0  0  0  0  0  0  0  0
   -1.5000   -7.7942    0.0000 C   0  0  0  0  0  0  0  0  0  0  0  0
   -0.7500   -6.4952    0.0000 C   0  0  0  0  0  0  0  0  0  0  0  0
   -1.5000   -5.1962    0.0000 O   0  0  0  0  0  0  0  0  0  0  0  0
    0.7500   -6.4952    0.0000 N   0  0  0  0  0  0  0  0  0  0  0  0
    1.5000   -5.1962    0.0000 C   0  0  0  0  0  0  0  0  0  0  0  0
    0.7500   -3.8971    0.0000 C   0  0  0  0  0  0  0  0  0  0  0  0
    1.5000   -2.5981    0.0000 O   0  0  0  0  0  0  0  0  0  0  0  0
    0.7500   -1.2990    0.0000 C   0  0  0  0  0  0  0  0  0  0  0  0
    1.5000    0.0000    0.0000 C   0  0  0  0  0  0  0  0  0  0  0  0
    0.7500    1.2990    0.0000 C   0  0  0  0  0  0  0  0  0  0  0  0
   -0.7500    1.2990    0.0000 C   0  0  0  0  0  0  0  0  0  0  0  0
   -1.5000    0.0000    0.0000 C   0  0  0  0  0  0  0  0  0  0  0  0
   -0.7500   -1.2990    0.0000 C   0  0  0  0  0  0  0  0  0  0  0  0
    1.5000   -7.7942    0.0000 C   0  0  0  0  0  0  0  0  0  0  0  0
    3.0000   -7.7942    0.0000 C   0  0  0  0  0  0  0  0  0  0  0  0
    3.7500   -6.4952    0.0000 O   0  0  0  0  0  0  0  0  0  0  0  0
    3.7500   -9.0933    0.0000 N   0  0  0  0  0  0  0  0  0  0  0  0
    5.2500   -9.0933    0.0000 C   0  0  0  0  0  0  0  0  0  0  0  0
    6.0000  -10.3923    0.0000 C   0  0  0  0  0  0  0  0  0  0  0  0
    7.5000  -10.3923    0.0000 C   0  0  0  0  0  0  0  0  0  0  0  0
    9.0000  -10.3923    0.0000 C   0  0  0  0  0  0  0  0  0  0  0  0
    6.0000   -7.7942    0.0000 C   0  0  0  0  0  0  0  0  0  0  0  0
    5.2500   -6.4952    0.0000 O   0  0  0  0  0  0  0  0  0  0  0  0
    7.5000   -7.7942    0.0000 O   0  0  0  0  0  0  0  0  0  0  0  0
  2  1  1  6
  2  3  1  0
  3  4  1  0
  4  5  1  0
  4  6  1  0
  2  7  1  0
  7  8  2  0
  7  9  1  0
  9 10  1  0
 10 11  1  6
 11 12  1  0
 12 13  1  0
 12 14  1  0
 10 15  1  0
 15 16  2  0
 15 17  1  0
 17 18  1  0
 18 19  1  0
 19 20  1  0
 20 21  1  0
 21 22  1  6
 22 23  2  0
 22 24  1  0
 24 25  1  0
 25 26  1  0
 26 27  1  0
 27 28  1  0
 28 29  2  0
 29 30  1  0
 30 31  2  0
 31 32  1  0
 32 33  2  0
 24 34  1  0
 34 35  1  0
 35 36  2  0
 35 37  1  0
 37 38  1  0
 38 39  1  6
 39 40  1  0
 40 41  3  0
 38 42  1  0
 42 43  2  0
 42 44  1  0
 33 28  1  0
 21 17  1  0
M  END
$$$$

     RDKit          2D

 45 46  0  0  0  0  0  0  0  0999 V2000
   -6.8533  -11.4279    0.0000 N   0  0  0  0  0  0  0  0  0  0  0  0
   -7.3168  -12.8545    0.0000 C   0  0  0  0  0  0  0  0  0  0  0  0
   -7.8570  -10.3132    0.0000 C   0  0  0  0  0  0  0  0  0  0  0  0
   -9.3242  -10.6251    0.0000 C   0  0  0  0  0  0  0  0  0  0  0  0
   -9.7877  -12.0517    0.0000 C   0  0  0  0  0  0  0  0  0  0  0  0
  -11.2549  -12.3635    0.0000 C   0  0  0  0  0  0  0  0  0  0  0  0
   -8.7840  -13.1664    0.0000 C   0  0  0  0  0  0  0  0  0  0  0  0
   -7.3934   -8.8866    0.0000 C   0  0  0  0  0  0  0  0  0  0  0  0
   -8.3971   -7.7719    0.0000 O   0  0  0  0  0  0  0  0  0  0  0  0
   -5.9262   -8.5748    0.0000 N   0  0  0  0  0  0  0  0  0  0  0  0
   -5.4627   -7.1482    0.0000 C   0  0  0  0  0  0  0  0  0  0  0  0
   -6.4664   -6.0335    0.0000 C   0  0  0  0  0  0  0  0  0  0  0  0
   -6.0029   -4.6069    0.0000 C   0  0  0  0  0  0  0  0  0  0  0  0
   -4.5356   -4.2950    0.0000 C   0  0  0  0  0  0  0  0  0  0  0  0
   -7.0066   -3.4922    0.0000 C   0  0  0  0  0  0  0  0  0  0  0  0
   -3.9955   -6.8363    0.0000 C   0  0  0  0  0  0  0  0  0  0  0  0
   -3.5320   -5.4097    0.0000 O   0  0  0  0  0  0  0  0  0  0  0  0
   -2.9918   -7.9510    0.0000 N   0  0  0  0  0  0  0  0  0  0  0  0
   -3.3037   -9.4182    0.0000 C   0  0  0  0  0  0  0  0  0  0  0  0
   -2.0046  -10.1682    0.0000 C   0  0  0  0  0  0  0  0  0  0  0  0
   -0.8899   -9.1645    0.0000 C   0  0  0  0  0  0  0  0  0  0  0  0
   -1.5000   -7.7942    0.0000 C   0  0  0  0  0  0  0  0  0  0  0  0
   -0.7500   -6.4952    0.0000 C   0  0  0  0  0  0  0  0  0  0  0  0
   -1.5000   -5.1962    0.0000 O   0  0  0  0  0  0  0  0  0  0  0  0
    0.7500   -6.4952    0.0000 N   0  0  0  0  0  0  0  0  0  0  0  0
    1.5000   -5.1962    0.0000 C   0  0  0  0  0  0  0  0  0  0  0  0
    0.7500   -3.8971    0.0000 C   0  0  0  0  0  0  0  0  0  0  0  0
    1.5000   -2.5981    0.0000 O   0  0  0  0  0  0  0  0  0  0  0  0
    0.7500   -1.2990    0.0000 C   0  0  0  0  0  0  0  0  0  0  0  0
    1.5000    0.0000    0.0000 C   0  0  0  0  0  0  0  0  0  0  0  0
    0.7500    1.2990    0.0000 C   0  0  0  0  0  0  0  0  0  0  0  0
   -0.7500    1.2990    0.0000 C   0  0  0  0  0  0  0  0  0  0  0  0
   -1.5000    0.0000    0.0000 C   0  0  0  0  0  0  0  0  0  0  0  0
   -0.7500   -1.2990    0.0000 C   0  0  0  0  0  0  0  0  0  0  0  0
    1.5000   -7.7942    0.0000 C   0  0  0  0  0  0  0  0  0  0  0  0
    3.0000   -7.7942    0.0000 C   0  0  0  0  0  0  0  0  0  0  0  0
    3.7500   -6.4952    0.0000 O   0  0  0  0  0  0  0  0  0  0  0  0
    3.7500   -9.0933    0.0000 N   0  0  0  0  0  0  0  0  0  0  0  0
    5.2500   -9.0933    0.0000 C   0  0  0  0  0  0  0  0  0  0  0  0
    6.0000  -10.3923    0.0000 C   0  0  0  0  0  0  0  0  0  0  0  0
    7.5000  -10.3923    0.0000 C   0  0  0  0  0  0  0  0  0  0  0  0
    9.0000  -10.3923    0.0000 C   0  0  0  0  0  0  0  0  0  0  0  0
    6.0000   -7.7942    0.0000 C   0  0  0  0  0  0  0  0  0  0  0  0
    5.2500   -6.4952    0.0000 O   0  0  0  0  0  0  0  0  0  0  0  0
    7.5000   -7.7942    0.0000 O   0  0  0  0  0  0  0  0  0  0  0  0
  1  2  1  0
  1  3  1  0
  3  4  1  1
  4  5  1  0
  5  6  1  0
  5  7  1  0
  3  8  1  0
  8  9  2  0
  8 10  1  0
 10 11  1  0
 11 12  1  6
 12 13  1  0
 13 14  1  0
 13 15  1  0
 11 16  1  0
 16 17  2  0
 16 18  1  0
 18 19  1  0
 19 20  1  0
 20 21  1  0
 21 22  1  0
 22 23  1  6
 23 24  2  0
 23 25  1  0
 25 26  1  0
 26 27  1  0
 27 28  1  0
 28 29  1  0
 29 30  2  0
 30 31  1  0
 31 32  2  0
 32 33  1  0
 33 34  2  0
 25 35  1  0
 35 36  1  0
 36 37  2  0
 36 38  1  0
 38 39  1  0
 39 40  1  6
 40 41  1  0
 41 42  3  0
 39 43  1  0
 43 44  2  0
 43 45  1  0
 34 29  1  0
 22 18  1  0
M  END
$$$$

     RDKit          2D

 45 46  0  0  0  0  0  0  0  0999 V2000
   -6.8533  -11.4279    0.0000 N   0  0  0  0  0  0  0  0  0  0  0  0
   -7.3168  -12.8545    0.0000 C   0  0  0  0  0  0  0  0  0  0  0  0
   -7.8570  -10.3132    0.0000 C   0  0  0  0  0  0  0  0  0  0  0  0
   -9.3242  -10.6251    0.0000 C   0  0  0  0  0  0  0  0  0  0  0  0
   -9.7877  -12.0517    0.0000 C   0  0  0  0  0  0  0  0  0  0  0  0
  -11.2549  -12.3635    0.0000 C   0  0  0  0  0  0  0  0  0  0  0  0
   -8.7840  -13.1664    0.0000 C   0  0  0  0  0  0  0  0  0  0  0  0
   -7.3934   -8.8866    0.0000 C   0  0  0  0  0  0  0  0  0  0  0  0
   -8.3971   -7.7719    0.0000 O   0  0  0  0  0  0  0  0  0  0  0  0
   -5.9262   -8.5748    0.0000 N   0  0  0  0  0  0  0  0  0  0  0  0
   -5.4627   -7.1482    0.0000 C   0  0  0  0  0  0  0  0  0  0  0  0
   -6.4664   -6.0335    0.0000 C   0  0  0  0  0  0  0  0  0  0  0  0
   -6.0029   -4.6069    0.0000 C   0  0  0  0  0  0  0  0  0  0  0  0
   -4.5356   -4.2950    0.0000 C   0  0  0  0  0  0  0  0  0  0  0  0
   -7.0066   -3.4922    0.0000 C   0  0  0  0  0  0  0  0  0  0  0  0
   -3.9955   -6.8363    0.0000 C   0  0  0  0  0  0  0  0  0  0  0  0
   -3.5320   -5.4097    0.0000 O   0  0  0  0  0  0  0  0  0  0  0  0
   -2.9918   -7.9510    0.0000 N   0  0  0  0  0  0  0  0  0  0  0  0
   -3.3037   -9.4182    0.0000 C   0  0  0  0  0  0  0  0  0  0  0  0
   -2.0046  -10.1682    0.0000 C   0  0  0  0  0  0  0  0  0  0  0  0
   -0.8899   -9.1645    0.0000 C   0  0  0  0  0  0  0  0  0  0  0  0
   -1.5000   -7.7942    0.0000 C   0  0  0  0  0  0  0  0  0  0  0  0
   -0.7500   -6.4952    0.0000 C   0  0  0  0  0  0  0  0  0  0  0  0
   -1.5000   -5.1962    0.0000 O   0  0  0  0  0  0  0  0  0  0  0  0
    0.7500   -6.4952    0.0000 N   0  0  0  0  0  0  0  0  0  0  0  0
    1.5000   -5.1962    0.0000 C   0  0  0  0  0  0  0  0  0  0  0  0
    0.7500   -3.8971    0.0000 C   0  0  0  0  0  0  0  0  0  0  0  0
    1.5000   -2.5981    0.0000 O   0  0  0  0  0  0  0  0  0  0  0  0
    0.7500   -1.2990    0.0000 C   0  0  0  0  0  0  0  0  0  0  0  0
    1.5000    0.0000    0.0000 C   0  0  0  0  0  0  0  0  0  0  0  0
    0.7500    1.2990    0.0000 C   0  0  0  0  0  0  0  0  0  0  0  0
   -0.7500    1.2990    0.0000 C   0  0  0  0  0  0  0  0  0  0  0  0
   -1.5000    0.0000    0.0000 C   0  0  0  0  0  0  0  0  0  0  0  0
   -0.7500   -1.2990    0.0000 C   0  0  0  0  0  0  0  0  0  0  0  0
    1.5000   -7.7942    0.0000 C   0  0  0  0  0  0  0  0  0  0  0  0
    3.0000   -7.7942    0.0000 C   0  0  0  0  0  0  0  0  0  0  0  0
    3.7500   -6.4952    0.0000 O   0  0  0  0  0  0  0  0  0  0  0  0
    3.7500   -9.0933    0.0000 N   0  0  0  0  0  0  0  0  0  0  0  0
    5.2500   -9.0933    0.0000 C   0  0  0  0  0  0  0  0  0  0  0  0
    6.0000  -10.3923    0.0000 C   0  0  0  0  0  0  0  0  0  0  0  0
    7.5000  -10.3923    0.0000 C   0  0  0  0  0  0  0  0  0  0  0  0
    9.0000  -10.3923    0.0000 C   0  0  0  0  0  0  0  0  0  0  0  0
    6.0000   -7.7942    0.0000 C   0  0  0  0  0  0  0  0  0  0  0  0
    5.2500   -6.4952    0.0000 O   0  0  0  0  0  0  0  0  0  0  0  0
    7.5000   -7.7942    0.0000 O   0  0  0  0  0  0  0  0  0  0  0  0
  1  2  1  0
  1  3  1  0
  3  4  1  6
  4  5  1  0
  5  6  1  0
  5  7  1  0
  3  8  1  0
  8  9  2  0
  8 10  1  0
 10 11  1  0
 11 12  1  6
 12 13  1  0
 13 14  1  0
 13 15  1  0
 11 16  1  0
 16 17  2  0
 16 18  1  0
 18 19  1  0
 19 20  1  0
 20 21  1  0
 21 22  1  0
 22 23  1  6
 23 24  2  0
 23 25  1  0
 25 26  1  0
 26 27  1  0
 27 28  1  0
 28 29  1  0
 29 30  2  0
 30 31  1  0
 31 32  2  0
 32 33  1  0
 33 34  2  0
 25 35  1  0
 35 36  1  0
 36 37  2  0
 36 38  1  0
 38 39  1  0
 39 40  1  6
 40 41  1  0
 41 42  3  0
 39 43  1  0
 43 44  2  0
 43 45  1  0
 34 29  1  0
 22 18  1  0
M  END
$$$$

     RDKit          2D

 45 46  0  0  0  0  0  0  0  0999 V2000
   -8.4738   -3.8040    0.0000 N   0  0  0  0  0  0  0  0  0  0  0  0
   -7.0066   -3.4922    0.0000 C   0  0  0  0  0  0  0  0  0  0  0  0
   -6.5430   -2.0656    0.0000 C   0  0  0  0  0  0  0  0  0  0  0  0
   -7.5467   -0.9509    0.0000 C   0  0  0  0  0  0  0  0  0  0  0  0
   -7.0832    0.4757    0.0000 C   0  0  0  0  0  0  0  0  0  0  0  0
   -9.0140   -1.2627    0.0000 C   0  0  0  0  0  0  0  0  0  0  0  0
   -6.0029   -4.6069    0.0000 C   0  0  0  0  0  0  0  0  0  0  0  0
   -4.5356   -4.2950    0.0000 O   0  0  0  0  0  0  0  0  0  0  0  0
   -6.4664   -6.0335    0.0000 N   0  0  0  0  0  0  0  0  0  0  0  0
   -7.9336   -6.3453    0.0000 C   0  0  0  0  0  0  0  0  0  0  0  0
   -5.4627   -7.1482    0.0000 C   0  0  0  0  0  0  0  0  0  0  0  0
   -5.9262   -8.5748    0.0000 C   0  0  0  0  0  0  0  0  0  0  0  0
   -7.3934   -8.8866    0.0000 C   0  0  0  0  0  0  0  0  0  0  0  0
   -7.8570  -10.3132    0.0000 C   0  0  0  0  0  0  0  0  0  0  0  0
   -8.3971   -7.7719    0.0000 C   0  0  0  0  0  0  0  0  0  0  0  0
   -3.9955   -6.8363    0.0000 C   0  0  0  0  0  0  0  0  0  0  0  0
   -3.5320   -5.4097    0.0000 O   0  0  0  0  0  0  0  0  0  0  0  0
   -2.9918   -7.9510    0.0000 N   0  0  0  0  0  0  0  0  0  0  0  0
   -3.3037   -9.4182    0.0000 C   0  0  0  0  0  0  0  0  0  0  0  0
   -2.0046  -10.1682    0.0000 C   0  0  0  0  0  0  0  0  0  0  0  0
   -0.8899   -9.1645    0.0000 C   0  0  0  0  0  0  0  0  0  0  0  0
   -1.5000   -7.7942    0.0000 C   0  0  0  0  0  0  0  0  0  0  0  0
   -0.7500   -6.4952    0.0000 C   0  0  0  0  0  0  0  0  0  0  0  0
   -1.5000   -5.1962    0.0000 O   0  0  0  0  0  0  0  0  0  0  0  0
    0.7500   -6.4952    0.0000 N   0  0  0  0  0  0  0  0  0  0  0  0
    1.5000   -5.1962    0.0000 C   0  0  0  0  0  0  0  0  0  0  0  0
    0.7500   -3.8971    0.0000 C   0  0  0  0  0  0  0  0  0  0  0  0
    1.5000   -2.5981    0.0000 O   0  0  0  0  0  0  0  0  0  0  0  0
    0.7500   -1.2990    0.0000 C   0  0  0  0  0  0  0  0  0  0  0  0
    1.5000    0.0000    0.0000 C   0  0  0  0  0  0  0  0  0  0  0  0
    0.7500    1.2990    0.0000 C   0  0  0  0  0  0  0  0  0  0  0  0
   -0.7500    1.2990    0.0000 C   0  0  0  0  0  0  0  0  0  0  0  0
   -1.5000    0.0000    0.0000 C   0  0  0  0  0  0  0  0  0  0  0  0
   -0.7500   -1.2990    0.0000 C   0  0  0  0  0  0  0  0  0  0  0  0
    1.5000   -7.7942    0.0000 C   0  0  0  0  0  0  0  0  0  0  0  0
    3.0000   -7.7942    0.0000 C   0  0  0  0  0  0  0  0  0  0  0  0
    3.7500   -6.4952    0.0000 O   0  0  0  0  0  0  0  0  0  0  0  0
    3.7500   -9.0933    0.0000 N   0  0  0  0  0  0  0  0  0  0  0  0
    5.2500   -9.0933    0.0000 C   0  0  0  0  0  0  0  0  0  0  0  0
    6.0000  -10.3923    0.0000 C   0  0  0  0  0  0  0  0  0  0  0  0
    7.5000  -10.3923    0.0000 C   0  0  0  0  0  0  0  0  0  0  0  0
    9.0000  -10.3923    0.0000 C   0  0  0  0  0  0  0  0  0  0  0  0
    6.0000   -7.7942    0.0000 C   0  0  0  0  0  0  0  0  0  0  0  0
    5.2500   -6.4952    0.0000 O   0  0  0  0  0  0  0  0  0  0  0  0
    7.5000   -7.7942    0.0000 O   0  0  0  0  0  0  0  0  0  0  0  0
  2  1  1  1
  2  3  1  0
  3  4  1  0
  4  5  1  0
  4  6  1  0
  2  7  1  0
  7  8  2  0
  7  9  1  0
  9 10  1  0
  9 11  1  0
 11 12  1  6
 12 13  1  0
 13 14  1  0
 13 15  1  0
 11 16  1  0
 16 17  2  0
 16 18  1  0
 18 19  1  0
 19 20  1  0
 20 21  1  0
 21 22  1  0
 22 23  1  6
 23 24  2  0
 23 25  1  0
 25 26  1  0
 26 27  1  0
 27 28  1  0
 28 29  1  0
 29 30  2  0
 30 31  1  0
 31 32  2  0
 32 33  1  0
 33 34  2  0
 25 35  1  0
 35 36  1  0
 36 37  2  0
 36 38  1  0
 38 39  1  0
 39 40  1  6
 40 41  1  0
 41 42  3  0
 39 43  1  0
 43 44  2  0
 43 45  1  0
 34 29  1  0
 22 18  1  0
M  END
$$$$

     RDKit          2D

 45 46  0  0  0  0  0  0  0  0999 V2000
   -8.4738   -3.8040    0.0000 N   0  0  0  0  0  0  0  0  0  0  0  0
   -7.0066   -3.4922    0.0000 C   0  0  0  0  0  0  0  0  0  0  0  0
   -6.5430   -2.0656    0.0000 C   0  0  0  0  0  0  0  0  0  0  0  0
   -7.5467   -0.9509    0.0000 C   0  0  0  0  0  0  0  0  0  0  0  0
   -7.0832    0.4757    0.0000 C   0  0  0  0  0  0  0  0  0  0  0  0
   -9.0140   -1.2627    0.0000 C   0  0  0  0  0  0  0  0  0  0  0  0
   -6.0029   -4.6069    0.0000 C   0  0  0  0  0  0  0  0  0  0  0  0
   -4.5356   -4.2950    0.0000 O   0  0  0  0  0  0  0  0  0  0  0  0
   -6.4664   -6.0335    0.0000 N   0  0  0  0  0  0  0  0  0  0  0  0
   -7.9336   -6.3453    0.0000 C   0  0  0  0  0  0  0  0  0  0  0  0
   -5.4627   -7.1482    0.0000 C   0  0  0  0  0  0  0  0  0  0  0  0
   -5.9262   -8.5748    0.0000 C   0  0  0  0  0  0  0  0  0  0  0  0
   -7.3934   -8.8866    0.0000 C   0  0  0  0  0  0  0  0  0  0  0  0
   -7.8570  -10.3132    0.0000 C   0  0  0  0  0  0  0  0  0  0  0  0
   -8.3971   -7.7719    0.0000 C   0  0  0  0  0  0  0  0  0  0  0  0
   -3.9955   -6.8363    0.0000 C   0  0  0  0  0  0  0  0  0  0  0  0
   -3.5320   -5.4097    0.0000 O   0  0  0  0  0  0  0  0  0  0  0  0
   -2.9918   -7.9510    0.0000 N   0  0  0  0  0  0  0  0  0  0  0  0
   -3.3037   -9.4182    0.0000 C   0  0  0  0  0  0  0  0  0  0  0  0
   -2.0046  -10.1682    0.0000 C   0  0  0  0  0  0  0  0  0  0  0  0
   -0.8899   -9.1645    0.0000 C   0  0  0  0  0  0  0  0  0  0  0  0
   -1.5000   -7.7942    0.0000 C   0  0  0  0  0  0  0  0  0  0  0  0
   -0.7500   -6.4952    0.0000 C   0  0  0  0  0  0  0  0  0  0  0  0
   -1.5000   -5.1962    0.0000 O   0  0  0  0  0  0  0  0  0  0  0  0
    0.7500   -6.4952    0.0000 N   0  0  0  0  0  0  0  0  0  0  0  0
    1.5000   -5.1962    0.0000 C   0  0  0  0  0  0  0  0  0  0  0  0
    0.7500   -3.8971    0.0000 C   0  0  0  0  0  0  0  0  0  0  0  0
    1.5000   -2.5981    0.0000 O   0  0  0  0  0  0  0  0  0  0  0  0
    0.7500   -1.2990    0.0000 C   0  0  0  0  0  0  0  0  0  0  0  0
    1.5000    0.0000    0.0000 C   0  0  0  0  0  0  0  0  0  0  0  0
    0.7500    1.2990    0.0000 C   0  0  0  0  0  0  0  0  0  0  0  0
   -0.7500    1.2990    0.0000 C   0  0  0  0  0  0  0  0  0  0  0  0
   -1.5000    0.0000    0.0000 C   0  0  0  0  0  0  0  0  0  0  0  0
   -0.7500   -1.2990    0.0000 C   0  0  0  0  0  0  0  0  0  0  0  0
    1.5000   -7.7942    0.0000 C   0  0  0  0  0  0  0  0  0  0  0  0
    3.0000   -7.7942    0.0000 C   0  0  0  0  0  0  0  0  0  0  0  0
    3.7500   -6.4952    0.0000 O   0  0  0  0  0  0  0  0  0  0  0  0
    3.7500   -9.0933    0.0000 N   0  0  0  0  0  0  0  0  0  0  0  0
    5.2500   -9.0933    0.0000 C   0  0  0  0  0  0  0  0  0  0  0  0
    6.0000  -10.3923    0.0000 C   0  0  0  0  0  0  0  0  0  0  0  0
    7.5000  -10.3923    0.0000 C   0  0  0  0  0  0  0  0  0  0  0  0
    9.0000  -10.3923    0.0000 C   0  0  0  0  0  0  0  0  0  0  0  0
    6.0000   -7.7942    0.0000 C   0  0  0  0  0  0  0  0  0  0  0  0
    5.2500   -6.4952    0.0000 O   0  0  0  0  0  0  0  0  0  0  0  0
    7.5000   -7.7942    0.0000 O   0  0  0  0  0  0  0  0  0  0  0  0
  2  1  1  6
  2  3  1  0
  3  4  1  0
  4  5  1  0
  4  6  1  0
  2  7  1  0
  7  8  2  0
  7  9  1  0
  9 10  1  0
  9 11  1  0
 11 12  1  6
 12 13  1  0
 13 14  1  0
 13 15  1  0
 11 16  1  0
 16 17  2  0
 16 18  1  0
 18 19  1  0
 19 20  1  0
 20 21  1  0
 21 22  1  0
 22 23  1  6
 23 24  2  0
 23 25  1  0
 25 26  1  0
 26 27  1  0
 27 28  1  0
 28 29  1  0
 29 30  2  0
 30 31  1  0
 31 32  2  0
 32 33  1  0
 33 34  2  0
 25 35  1  0
 35 36  1  0
 36 37  2  0
 36 38  1  0
 38 39  1  0
 39 40  1  6
 40 41  1  0
 41 42  3  0
 39 43  1  0
 43 44  2  0
 43 45  1  0
 22 18  1  0
 34 29  1  0
M  END
$$$$

     RDKit          2D

 32 32  0  0  0  0  0  0  0  0999 V2000
    8.2500   -1.2990    0.0000 N   0  0  0  0  0  0  0  0  0  0  0  0
    7.5000    0.0000    0.0000 C   0  0  0  0  0  0  0  0  0  0  0  0
    8.2500    1.2990    0.0000 C   0  0  0  0  0  0  0  0  0  0  0  0
    9.7500    1.2990    0.0000 C   0  0  0  0  0  0  0  0  0  0  0  0
   10.5000    2.5981    0.0000 C   0  0  0  0  0  0  0  0  0  0  0  0
   10.5000    0.0000    0.0000 C   0  0  0  0  0  0  0  0  0  0  0  0
    6.0000    0.0000    0.0000 C   0  0  0  0  0  0  0  0  0  0  0  0
    5.2500    1.2990    0.0000 O   0  0  0  0  0  0  0  0  0  0  0  0
    5.2500   -1.2990    0.0000 N   0  0  0  0  0  0  0  0  0  0  0  0
    3.7500   -1.2990    0.0000 C   0  0  0  0  0  0  0  0  0  0  0  0
    3.0000    0.0000    0.0000 C   0  0  0  0  0  0  0  0  0  0  0  0
    1.5000    0.0000    0.0000 C   0  0  0  0  0  0  0  0  0  0  0  0
    0.7500   -1.2990    0.0000 C   0  0  0  0  0  0  0  0  0  0  0  0
   -0.7500   -1.2990    0.0000 C   0  0  0  0  0  0  0  0  0  0  0  0
   -1.5000    0.0000    0.0000 C   0  0  0  0  0  0  0  0  0  0  0  0
   -0.7500    1.2990    0.0000 C   0  0  0  0  0  0  0  0  0  0  0  0
   -1.5000    2.5981    0.0000 O   0  0  0  0  0  0  0  0  0  0  0  0
   -0.7500    3.8971    0.0000 C   0  0  0  0  0  0  0  0  0  0  0  0
    0.7500    1.2990    0.0000 C   0  0  0  0  0  0  0  0  0  0  0  0
   -3.0000    0.0000    0.0000 O   0  0  0  0  0  0  0  0  0  0  0  0
   -3.7500    1.2990    0.0000 C   0  0  0  0  0  0  0  0  0  0  0  0
    6.0000   -2.5981    0.0000 C   0  0  0  0  0  0  0  0  0  0  0  0
    5.2500   -3.8971    0.0000 C   0  0  0  0  0  0  0  0  0  0  0  0
    3.7500   -3.8971    0.0000 O   0  0  0  0  0  0  0  0  0  0  0  0
    6.0000   -5.1962    0.0000 N   0  0  0  0  0  0  0  0  0  0  0  0
    5.2500   -6.4952    0.0000 C   0  0  0  0  0  0  0  0  0  0  0  0
    6.0000   -7.7942    0.0000 C   0  0  0  0  0  0  0  0  0  0  0  0
    5.2500   -9.0933    0.0000 C   0  0  0  0  0  0  0  0  0  0  0  0
    4.5000  -10.3923    0.0000 C   0  0  0  0  0  0  0  0  0  0  0  0
    3.7500   -6.4952    0.0000 C   0  0  0  0  0  0  0  0  0  0  0  0
    3.0000   -5.1962    0.0000 O   0  0  0  0  0  0  0  0  0  0  0  0
    3.0000   -7.7942    0.0000 O   0  0  0  0  0  0  0  0  0  0  0  0
  2  1  1  6
  2  3  1  0
  3  4  1  0
  4  5  1  0
  4  6  1  0
  2  7  1  0
  7  8  2  0
  7  9  1  0
  9 10  1  0
 10 11  1  0
 11 12  1  0
 12 13  2  0
 13 14  1  0
 14 15  2  0
 15 16  1  0
 16 17  1  0
 17 18  1  0
 16 19  2  0
 15 20  1  0
 20 21  1  0
  9 22  1  0
 22 23  1  0
 23 24  2  0
 23 25  1  0
 25 26  1  0
 26 27  1  1
 27 28  1  0
 28 29  3  0
 26 30  1  0
 30 31  2  0
 30 32  1  0
 19 12  1  0
M  END
$$$$

     RDKit          2D

 32 32  0  0  0  0  0  0  0  0999 V2000
    8.2500   -1.2990    0.0000 N   0  0  0  0  0  0  0  0  0  0  0  0
    7.5000    0.0000    0.0000 C   0  0  0  0  0  0  0  0  0  0  0  0
    8.2500    1.2990    0.0000 C   0  0  0  0  0  0  0  0  0  0  0  0
    9.7500    1.2990    0.0000 C   0  0  0  0  0  0  0  0  0  0  0  0
   10.5000    2.5981    0.0000 C   0  0  0  0  0  0  0  0  0  0  0  0
   10.5000    0.0000    0.0000 C   0  0  0  0  0  0  0  0  0  0  0  0
    6.0000    0.0000    0.0000 C   0  0  0  0  0  0  0  0  0  0  0  0
    5.2500    1.2990    0.0000 O   0  0  0  0  0  0  0  0  0  0  0  0
    5.2500   -1.2990    0.0000 N   0  0  0  0  0  0  0  0  0  0  0  0
    3.7500   -1.2990    0.0000 C   0  0  0  0  0  0  0  0  0  0  0  0
    3.0000    0.0000    0.0000 C   0  0  0  0  0  0  0  0  0  0  0  0
    1.5000    0.0000    0.0000 C   0  0  0  0  0  0  0  0  0  0  0  0
    0.7500   -1.2990    0.0000 C   0  0  0  0  0  0  0  0  0  0  0  0
   -0.7500   -1.2990    0.0000 C   0  0  0  0  0  0  0  0  0  0  0  0
   -1.5000    0.0000    0.0000 C   0  0  0  0  0  0  0  0  0  0  0  0
   -0.7500    1.2990    0.0000 C   0  0  0  0  0  0  0  0  0  0  0  0
   -1.5000    2.5981    0.0000 O   0  0  0  0  0  0  0  0  0  0  0  0
   -0.7500    3.8971    0.0000 C   0  0  0  0  0  0  0  0  0  0  0  0
    0.7500    1.2990    0.0000 C   0  0  0  0  0  0  0  0  0  0  0  0
   -3.0000    0.0000    0.0000 O   0  0  0  0  0  0  0  0  0  0  0  0
   -3.7500    1.2990    0.0000 C   0  0  0  0  0  0  0  0  0  0  0  0
    6.0000   -2.5981    0.0000 C   0  0  0  0  0  0  0  0  0  0  0  0
    5.2500   -3.8971    0.0000 C   0  0  0  0  0  0  0  0  0  0  0  0
    3.7500   -3.8971    0.0000 O   0  0  0  0  0  0  0  0  0  0  0  0
    6.0000   -5.1962    0.0000 N   0  0  0  0  0  0  0  0  0  0  0  0
    5.2500   -6.4952    0.0000 C   0  0  0  0  0  0  0  0  0  0  0  0
    6.0000   -7.7942    0.0000 C   0  0  0  0  0  0  0  0  0  0  0  0
    5.2500   -9.0933    0.0000 C   0  0  0  0  0  0  0  0  0  0  0  0
    4.5000  -10.3923    0.0000 C   0  0  0  0  0  0  0  0  0  0  0  0
    3.7500   -6.4952    0.0000 C   0  0  0  0  0  0  0  0  0  0  0  0
    3.0000   -5.1962    0.0000 O   0  0  0  0  0  0  0  0  0  0  0  0
    3.0000   -7.7942    0.0000 O   0  0  0  0  0  0  0  0  0  0  0  0
  2  1  1  1
  2  3  1  0
  3  4  1  0
  4  5  1  0
  4  6  1  0
  2  7  1  0
  7  8  2  0
  7  9  1  0
  9 10  1  0
 10 11  1  0
 11 12  1  0
 12 13  2  0
 13 14  1  0
 14 15  2  0
 15 16  1  0
 16 17  1  0
 17 18  1  0
 16 19  2  0
 15 20  1  0
 20 21  1  0
  9 22  1  0
 22 23  1  0
 23 24  2  0
 23 25  1  0
 25 26  1  0
 26 27  1  1
 27 28  1  0
 28 29  3  0
 26 30  1  0
 30 31  2  0
 30 32  1  0
 19 12  1  0
M  END
$$$$

     RDKit          2D

 31 31  0  0  0  0  0  0  0  0999 V2000
    8.2500   -1.2990    0.0000 N   0  0  0  0  0  0  0  0  0  0  0  0
    7.5000    0.0000    0.0000 C   0  0  0  0  0  0  0  0  0  0  0  0
    8.2500    1.2990    0.0000 C   0  0  0  0  0  0  0  0  0  0  0  0
    9.7500    1.2990    0.0000 C   0  0  0  0  0  0  0  0  0  0  0  0
    7.5000    2.5981    0.0000 C   0  0  0  0  0  0  0  0  0  0  0  0
    6.0000    0.0000    0.0000 C   0  0  0  0  0  0  0  0  0  0  0  0
    5.2500    1.2990    0.0000 O   0  0  0  0  0  0  0  0  0  0  0  0
    5.2500   -1.2990    0.0000 N   0  0  0  0  0  0  0  0  0  0  0  0
    3.7500   -1.2990    0.0000 C   0  0  0  0  0  0  0  0  0  0  0  0
    3.0000    0.0000    0.0000 C   0  0  0  0  0  0  0  0  0  0  0  0
    1.5000    0.0000    0.0000 C   0  0  0  0  0  0  0  0  0  0  0  0
    0.7500   -1.2990    0.0000 C   0  0  0  0  0  0  0  0  0  0  0  0
   -0.7500   -1.2990    0.0000 C   0  0  0  0  0  0  0  0  0  0  0  0
   -1.5000    0.0000    0.0000 C   0  0  0  0  0  0  0  0  0  0  0  0
   -0.7500    1.2990    0.0000 C   0  0  0  0  0  0  0  0  0  0  0  0
   -1.5000    2.5981    0.0000 O   0  0  0  0  0  0  0  0  0  0  0  0
   -0.7500    3.8971    0.0000 C   0  0  0  0  0  0  0  0  0  0  0  0
    0.7500    1.2990    0.0000 C   0  0  0  0  0  0  0  0  0  0  0  0
   -3.0000    0.0000    0.0000 O   0  0  0  0  0  0  0  0  0  0  0  0
   -3.7500    1.2990    0.0000 C   0  0  0  0  0  0  0  0  0  0  0  0
    6.0000   -2.5981    0.0000 C   0  0  0  0  0  0  0  0  0  0  0  0
    5.2500   -3.8971    0.0000 C   0  0  0  0  0  0  0  0  0  0  0  0
    3.7500   -3.8971    0.0000 O   0  0  0  0  0  0  0  0  0  0  0  0
    6.0000   -5.1962    0.0000 N   0  0  0  0  0  0  0  0  0  0  0  0
    5.2500   -6.4952    0.0000 C   0  0  0  0  0  0  0  0  0  0  0  0
    6.0000   -7.7942    0.0000 C   0  0  0  0  0  0  0  0  0  0  0  0
    5.2500   -9.0933    0.0000 C   0  0  0  0  0  0  0  0  0  0  0  0
    4.5000  -10.3923    0.0000 C   0  0  0  0  0  0  0  0  0  0  0  0
    3.7500   -6.4952    0.0000 C   0  0  0  0  0  0  0  0  0  0  0  0
    3.0000   -5.1962    0.0000 O   0  0  0  0  0  0  0  0  0  0  0  0
    3.0000   -7.7942    0.0000 O   0  0  0  0  0  0  0  0  0  0  0  0
  2  1  1  6
  2  3  1  0
  3  4  1  0
  3  5  1  0
  2  6  1  0
  6  7  2  0
  6  8  1  0
  8  9  1  0
  9 10  1  0
 10 11  1  0
 11 12  2  0
 12 13  1  0
 13 14  2  0
 14 15  1  0
 15 16  1  0
 16 17  1  0
 15 18  2  0
 14 19  1  0
 19 20  1  0
  8 21  1  0
 21 22  1  0
 22 23  2  0
 22 24  1  0
 24 25  1  0
 25 26  1  1
 26 27  1  0
 27 28  3  0
 25 29  1  0
 29 30  2  0
 29 31  1  0
 18 11  1  0
M  END
$$$$

     RDKit          2D

 31 31  0  0  0  0  0  0  0  0999 V2000
    8.2500   -1.2990    0.0000 N   0  0  0  0  0  0  0  0  0  0  0  0
    7.5000    0.0000    0.0000 C   0  0  0  0  0  0  0  0  0  0  0  0
    8.2500    1.2990    0.0000 C   0  0  0  0  0  0  0  0  0  0  0  0
    9.7500    1.2990    0.0000 C   0  0  0  0  0  0  0  0  0  0  0  0
    7.5000    2.5981    0.0000 C   0  0  0  0  0  0  0  0  0  0  0  0
    6.0000    0.0000    0.0000 C   0  0  0  0  0  0  0  0  0  0  0  0
    5.2500    1.2990    0.0000 O   0  0  0  0  0  0  0  0  0  0  0  0
    5.2500   -1.2990    0.0000 N   0  0  0  0  0  0  0  0  0  0  0  0
    3.7500   -1.2990    0.0000 C   0  0  0  0  0  0  0  0  0  0  0  0
    3.0000    0.0000    0.0000 C   0  0  0  0  0  0  0  0  0  0  0  0
    1.5000    0.0000    0.0000 C   0  0  0  0  0  0  0  0  0  0  0  0
    0.7500   -1.2990    0.0000 C   0  0  0  0  0  0  0  0  0  0  0  0
   -0.7500   -1.2990    0.0000 C   0  0  0  0  0  0  0  0  0  0  0  0
   -1.5000    0.0000    0.0000 C   0  0  0  0  0  0  0  0  0  0  0  0
   -0.7500    1.2990    0.0000 C   0  0  0  0  0  0  0  0  0  0  0  0
   -1.5000    2.5981    0.0000 O   0  0  0  0  0  0  0  0  0  0  0  0
   -0.7500    3.8971    0.0000 C   0  0  0  0  0  0  0  0  0  0  0  0
    0.7500    1.2990    0.0000 C   0  0  0  0  0  0  0  0  0  0  0  0
   -3.0000    0.0000    0.0000 O   0  0  0  0  0  0  0  0  0  0  0  0
   -3.7500    1.2990    0.0000 C   0  0  0  0  0  0  0  0  0  0  0  0
    6.0000   -2.5981    0.0000 C   0  0  0  0  0  0  0  0  0  0  0  0
    5.2500   -3.8971    0.0000 C   0  0  0  0  0  0  0  0  0  0  0  0
    3.7500   -3.8971    0.0000 O   0  0  0  0  0  0  0  0  0  0  0  0
    6.0000   -5.1962    0.0000 N   0  0  0  0  0  0  0  0  0  0  0  0
    5.2500   -6.4952    0.0000 C   0  0  0  0  0  0  0  0  0  0  0  0
    6.0000   -7.7942    0.0000 C   0  0  0  0  0  0  0  0  0  0  0  0
    5.2500   -9.0933    0.0000 C   0  0  0  0  0  0  0  0  0  0  0  0
    4.5000  -10.3923    0.0000 C   0  0  0  0  0  0  0  0  0  0  0  0
    3.7500   -6.4952    0.0000 C   0  0  0  0  0  0  0  0  0  0  0  0
    3.0000   -5.1962    0.0000 O   0  0  0  0  0  0  0  0  0  0  0  0
    3.0000   -7.7942    0.0000 O   0  0  0  0  0  0  0  0  0  0  0  0
  2  1  1  1
  2  3  1  0
  3  4  1  0
  3  5  1  0
  2  6  1  0
  6  7  2  0
  6  8  1  0
  8  9  1  0
  9 10  1  0
 10 11  1  0
 11 12  2  0
 12 13  1  0
 13 14  2  0
 14 15  1  0
 15 16  1  0
 16 17  1  0
 15 18  2  0
 14 19  1  0
 19 20  1  0
  8 21  1  0
 21 22  1  0
 22 23  2  0
 22 24  1  0
 24 25  1  0
 25 26  1  1
 26 27  1  0
 27 28  3  0
 25 29  1  0
 29 30  2  0
 29 31  1  0
 18 11  1  0
M  END
$$$$

     RDKit          2D

 33 33  0  0  0  0  0  0  0  0999 V2000
    8.2500   -1.2990    0.0000 N   0  0  0  0  0  0  0  0  0  0  0  0
    9.7500   -1.2990    0.0000 C   0  0  0  0  0  0  0  0  0  0  0  0
    7.5000    0.0000    0.0000 C   0  0  0  0  0  0  0  0  0  0  0  0
    8.2500    1.2990    0.0000 C   0  0  0  0  0  0  0  0  0  0  0  0
    9.7500    1.2990    0.0000 C   0  0  0  0  0  0  0  0  0  0  0  0
   10.5000    2.5981    0.0000 C   0  0  0  0  0  0  0  0  0  0  0  0
   10.5000    0.0000    0.0000 C   0  0  0  0  0  0  0  0  0  0  0  0
    6.0000    0.0000    0.0000 C   0  0  0  0  0  0  0  0  0  0  0  0
    5.2500    1.2990    0.0000 O   0  0  0  0  0  0  0  0  0  0  0  0
    5.2500   -1.2990    0.0000 N   0  0  0  0  0  0  0  0  0  0  0  0
    3.7500   -1.2990    0.0000 C   0  0  0  0  0  0  0  0  0  0  0  0
    3.0000    0.0000    0.0000 C   0  0  0  0  0  0  0  0  0  0  0  0
    1.5000    0.0000    0.0000 C   0  0  0  0  0  0  0  0  0  0  0  0
    0.7500   -1.2990    0.0000 C   0  0  0  0  0  0  0  0  0  0  0  0
   -0.7500   -1.2990    0.0000 C   0  0  0  0  0  0  0  0  0  0  0  0
   -1.5000    0.0000    0.0000 C   0  0  0  0  0  0  0  0  0  0  0  0
   -0.7500    1.2990    0.0000 C   0  0  0  0  0  0  0  0  0  0  0  0
   -1.5000    2.5981    0.0000 O   0  0  0  0  0  0  0  0  0  0  0  0
   -0.7500    3.8971    0.0000 C   0  0  0  0  0  0  0  0  0  0  0  0
    0.7500    1.2990    0.0000 C   0  0  0  0  0  0  0  0  0  0  0  0
   -3.0000    0.0000    0.0000 O   0  0  0  0  0  0  0  0  0  0  0  0
   -3.7500    1.2990    0.0000 C   0  0  0  0  0  0  0  0  0  0  0  0
    6.0000   -2.5981    0.0000 C   0  0  0  0  0  0  0  0  0  0  0  0
    5.2500   -3.8971    0.0000 C   0  0  0  0  0  0  0  0  0  0  0  0
    3.7500   -3.8971    0.0000 O   0  0  0  0  0  0  0  0  0  0  0  0
    6.0000   -5.1962    0.0000 N   0  0  0  0  0  0  0  0  0  0  0  0
    5.2500   -6.4952    0.0000 C   0  0  0  0  0  0  0  0  0  0  0  0
    6.0000   -7.7942    0.0000 C   0  0  0  0  0  0  0  0  0  0  0  0
    5.2500   -9.0933    0.0000 C   0  0  0  0  0  0  0  0  0  0  0  0
    4.5000  -10.3923    0.0000 C   0  0  0  0  0  0  0  0  0  0  0  0
    3.7500   -6.4952    0.0000 C   0  0  0  0  0  0  0  0  0  0  0  0
    3.0000   -5.1962    0.0000 O   0  0  0  0  0  0  0  0  0  0  0  0
    3.0000   -7.7942    0.0000 O   0  0  0  0  0  0  0  0  0  0  0  0
  1  2  1  0
  1  3  1  0
  3  4  1  6
  4  5  1  0
  5  6  1  0
  5  7  1  0
  3  8  1  0
  8  9  2  0
  8 10  1  0
 10 11  1  0
 11 12  1  0
 12 13  1  0
 13 14  2  0
 14 15  1  0
 15 16  2  0
 16 17  1  0
 17 18  1  0
 18 19  1  0
 17 20  2  0
 16 21  1  0
 21 22  1  0
 10 23  1  0
 23 24  1  0
 24 25  2  0
 24 26  1  0
 26 27  1  0
 27 28  1  1
 28 29  1  0
 29 30  3  0
 27 31  1  0
 31 32  2  0
 31 33  1  0
 20 13  1  0
M  END
$$$$

     RDKit          2D

 33 33  0  0  0  0  0  0  0  0999 V2000
    8.2500   -1.2990    0.0000 N   0  0  0  0  0  0  0  0  0  0  0  0
    9.7500   -1.2990    0.0000 C   0  0  0  0  0  0  0  0  0  0  0  0
    7.5000    0.0000    0.0000 C   0  0  0  0  0  0  0  0  0  0  0  0
    8.2500    1.2990    0.0000 C   0  0  0  0  0  0  0  0  0  0  0  0
    9.7500    1.2990    0.0000 C   0  0  0  0  0  0  0  0  0  0  0  0
   10.5000    2.5981    0.0000 C   0  0  0  0  0  0  0  0  0  0  0  0
   10.5000    0.0000    0.0000 C   0  0  0  0  0  0  0  0  0  0  0  0
    6.0000    0.0000    0.0000 C   0  0  0  0  0  0  0  0  0  0  0  0
    5.2500    1.2990    0.0000 O   0  0  0  0  0  0  0  0  0  0  0  0
    5.2500   -1.2990    0.0000 N   0  0  0  0  0  0  0  0  0  0  0  0
    3.7500   -1.2990    0.0000 C   0  0  0  0  0  0  0  0  0  0  0  0
    3.0000    0.0000    0.0000 C   0  0  0  0  0  0  0  0  0  0  0  0
    1.5000    0.0000    0.0000 C   0  0  0  0  0  0  0  0  0  0  0  0
    0.7500   -1.2990    0.0000 C   0  0  0  0  0  0  0  0  0  0  0  0
   -0.7500   -1.2990    0.0000 C   0  0  0  0  0  0  0  0  0  0  0  0
   -1.5000    0.0000    0.0000 C   0  0  0  0  0  0  0  0  0  0  0  0
   -0.7500    1.2990    0.0000 C   0  0  0  0  0  0  0  0  0  0  0  0
   -1.5000    2.5981    0.0000 O   0  0  0  0  0  0  0  0  0  0  0  0
   -0.7500    3.8971    0.0000 C   0  0  0  0  0  0  0  0  0  0  0  0
    0.7500    1.2990    0.0000 C   0  0  0  0  0  0  0  0  0  0  0  0
   -3.0000    0.0000    0.0000 O   0  0  0  0  0  0  0  0  0  0  0  0
   -3.7500    1.2990    0.0000 C   0  0  0  0  0  0  0  0  0  0  0  0
    6.0000   -2.5981    0.0000 C   0  0  0  0  0  0  0  0  0  0  0  0
    5.2500   -3.8971    0.0000 C   0  0  0  0  0  0  0  0  0  0  0  0
    3.7500   -3.8971    0.0000 O   0  0  0  0  0  0  0  0  0  0  0  0
    6.0000   -5.1962    0.0000 N   0  0  0  0  0  0  0  0  0  0  0  0
    5.2500   -6.4952    0.0000 C   0  0  0  0  0  0  0  0  0  0  0  0
    6.0000   -7.7942    0.0000 C   0  0  0  0  0  0  0  0  0  0  0  0
    5.2500   -9.0933    0.0000 C   0  0  0  0  0  0  0  0  0  0  0  0
    4.5000  -10.3923    0.0000 C   0  0  0  0  0  0  0  0  0  0  0  0
    3.7500   -6.4952    0.0000 C   0  0  0  0  0  0  0  0  0  0  0  0
    3.0000   -5.1962    0.0000 O   0  0  0  0  0  0  0  0  0  0  0  0
    3.0000   -7.7942    0.0000 O   0  0  0  0  0  0  0  0  0  0  0  0
  1  2  1  0
  1  3  1  0
  3  4  1  1
  4  5  1  0
  5  6  1  0
  5  7  1  0
  3  8  1  0
  8  9  2  0
  8 10  1  0
 10 11  1  0
 11 12  1  0
 12 13  1  0
 13 14  2  0
 14 15  1  0
 15 16  2  0
 16 17  1  0
 17 18  1  0
 18 19  1  0
 17 20  2  0
 16 21  1  0
 21 22  1  0
 10 23  1  0
 23 24  1  0
 24 25  2  0
 24 26  1  0
 26 27  1  0
 27 28  1  1
 28 29  1  0
 29 30  3  0
 27 31  1  0
 31 32  2  0
 31 33  1  0
 20 13  1  0
M  END
$$$$

     RDKit          2D

 35 36  0  0  0  0  0  0  0  0999 V2000
   -0.7500   -3.8971    0.0000 N   0  0  0  0  0  0  0  0  0  0  0  0
    0.7500   -3.8971    0.0000 C   0  0  0  0  0  0  0  0  0  0  0  0
    1.5000   -2.5981    0.0000 C   0  0  0  0  0  0  0  0  0  0  0  0
    0.7500   -1.2990    0.0000 C   0  0  0  0  0  0  0  0  0  0  0  0
    1.5000    0.0000    0.0000 C   0  0  0  0  0  0  0  0  0  0  0  0
    0.7500    1.2990    0.0000 C   0  0  0  0  0  0  0  0  0  0  0  0
   -0.7500    1.2990    0.0000 C   0  0  0  0  0  0  0  0  0  0  0  0
   -1.5000    0.0000    0.0000 C   0  0  0  0  0  0  0  0  0  0  0  0
   -0.7500   -1.2990    0.0000 C   0  0  0  0  0  0  0  0  0  0  0  0
    1.5000   -5.1962    0.0000 C   0  0  0  0  0  0  0  0  0  0  0  0
    3.0000   -5.1962    0.0000 O   0  0  0  0  0  0  0  0  0  0  0  0
    0.7500   -6.4952    0.0000 N   0  0  0  0  0  0  0  0  0  0  0  0
    1.5000   -7.7942    0.0000 C   0  0  0  0  0  0  0  0  0  0  0  0
    0.7500   -9.0933    0.0000 C   0  0  0  0  0  0  0  0  0  0  0  0
    1.5000  -10.3923    0.0000 C   0  0  0  0  0  0  0  0  0  0  0  0
    0.7500  -11.6913    0.0000 C   0  0  0  0  0  0  0  0  0  0  0  0
    1.5000  -12.9904    0.0000 C   0  0  0  0  0  0  0  0  0  0  0  0
    3.0000  -12.9904    0.0000 C   0  0  0  0  0  0  0  0  0  0  0  0
    3.7500  -11.6913    0.0000 C   0  0  0  0  0  0  0  0  0  0  0  0
    5.2500  -11.6913    0.0000 O   0  0  0  0  0  0  0  0  0  0  0  0
    6.0000  -10.3923    0.0000 C   0  0  0  0  0  0  0  0  0  0  0  0
    3.0000  -10.3923    0.0000 C   0  0  0  0  0  0  0  0  0  0  0  0
    3.7500  -14.2894    0.0000 O   0  0  0  0  0  0  0  0  0  0  0  0
    3.0000  -15.5885    0.0000 C   0  0  0  0  0  0  0  0  0  0  0  0
   -0.7500   -6.4952    0.0000 C   0  0  0  0  0  0  0  0  0  0  0  0
   -1.5000   -7.7942    0.0000 C   0  0  0  0  0  0  0  0  0  0  0  0
   -0.7500   -9.0933    0.0000 O   0  0  0  0  0  0  0  0  0  0  0  0
   -3.0000   -7.7942    0.0000 N   0  0  0  0  0  0  0  0  0  0  0  0
   -3.7500   -9.0933    0.0000 C   0  0  0  0  0  0  0  0  0  0  0  0
   -5.2500   -9.0933    0.0000 C   0  0  0  0  0  0  0  0  0  0  0  0
   -6.0000  -10.3923    0.0000 C   0  0  0  0  0  0  0  0  0  0  0  0
   -6.7500  -11.6913    0.0000 C   0  0  0  0  0  0  0  0  0  0  0  0
   -3.0000  -10.3923    0.0000 C   0  0  0  0  0  0  0  0  0  0  0  0
   -1.5000  -10.3923    0.0000 O   0  0  0  0  0  0  0  0  0  0  0  0
   -3.7500  -11.6913    0.0000 O   0  0  0  0  0  0  0  0  0  0  0  0
  2  1  1  1
  2  3  1  0
  3  4  1  0
  4  5  2  0
  5  6  1  0
  6  7  2  0
  7  8  1  0
  8  9  2  0
  2 10  1  0
 10 11  2  0
 10 12  1  0
 12 13  1  0
 13 14  1  0
 14 15  1  0
 15 16  2  0
 16 17  1  0
 17 18  2  0
 18 19  1  0
 19 20  1  0
 20 21  1  0
 19 22  2  0
 18 23  1  0
 23 24  1  0
 12 25  1  0
 25 26  1  0
 26 27  2  0
 26 28  1  0
 28 29  1  0
 29 30  1  6
 30 31  1  0
 31 32  3  0
 29 33  1  0
 33 34  2  0
 33 35  1  0
  9  4  1  0
 22 15  1  0
M  END
$$$$

     RDKit          2D

 35 36  0  0  0  0  0  0  0  0999 V2000
   -0.7500   -3.8971    0.0000 N   0  0  0  0  0  0  0  0  0  0  0  0
    0.7500   -3.8971    0.0000 C   0  0  0  0  0  0  0  0  0  0  0  0
    1.5000   -2.5981    0.0000 C   0  0  0  0  0  0  0  0  0  0  0  0
    0.7500   -1.2990    0.0000 C   0  0  0  0  0  0  0  0  0  0  0  0
    1.5000    0.0000    0.0000 C   0  0  0  0  0  0  0  0  0  0  0  0
    0.7500    1.2990    0.0000 C   0  0  0  0  0  0  0  0  0  0  0  0
   -0.7500    1.2990    0.0000 C   0  0  0  0  0  0  0  0  0  0  0  0
   -1.5000    0.0000    0.0000 C   0  0  0  0  0  0  0  0  0  0  0  0
   -0.7500   -1.2990    0.0000 C   0  0  0  0  0  0  0  0  0  0  0  0
    1.5000   -5.1962    0.0000 C   0  0  0  0  0  0  0  0  0  0  0  0
    3.0000   -5.1962    0.0000 O   0  0  0  0  0  0  0  0  0  0  0  0
    0.7500   -6.4952    0.0000 N   0  0  0  0  0  0  0  0  0  0  0  0
    1.5000   -7.7942    0.0000 C   0  0  0  0  0  0  0  0  0  0  0  0
    0.7500   -9.0933    0.0000 C   0  0  0  0  0  0  0  0  0  0  0  0
    1.5000  -10.3923    0.0000 C   0  0  0  0  0  0  0  0  0  0  0  0
    0.7500  -11.6913    0.0000 C   0  0  0  0  0  0  0  0  0  0  0  0
    1.5000  -12.9904    0.0000 C   0  0  0  0  0  0  0  0  0  0  0  0
    3.0000  -12.9904    0.0000 C   0  0  0  0  0  0  0  0  0  0  0  0
    3.7500  -11.6913    0.0000 C   0  0  0  0  0  0  0  0  0  0  0  0
    5.2500  -11.6913    0.0000 O   0  0  0  0  0  0  0  0  0  0  0  0
    6.0000  -10.3923    0.0000 C   0  0  0  0  0  0  0  0  0  0  0  0
    3.0000  -10.3923    0.0000 C   0  0  0  0  0  0  0  0  0  0  0  0
    3.7500  -14.2894    0.0000 O   0  0  0  0  0  0  0  0  0  0  0  0
    3.0000  -15.5885    0.0000 C   0  0  0  0  0  0  0  0  0  0  0  0
   -0.7500   -6.4952    0.0000 C   0  0  0  0  0  0  0  0  0  0  0  0
   -1.5000   -7.7942    0.0000 C   0  0  0  0  0  0  0  0  0  0  0  0
   -0.7500   -9.0933    0.0000 O   0  0  0  0  0  0  0  0  0  0  0  0
   -3.0000   -7.7942    0.0000 N   0  0  0  0  0  0  0  0  0  0  0  0
   -3.7500   -9.0933    0.0000 C   0  0  0  0  0  0  0  0  0  0  0  0
   -5.2500   -9.0933    0.0000 C   0  0  0  0  0  0  0  0  0  0  0  0
   -6.0000  -10.3923    0.0000 C   0  0  0  0  0  0  0  0  0  0  0  0
   -6.7500  -11.6913    0.0000 C   0  0  0  0  0  0  0  0  0  0  0  0
   -3.0000  -10.3923    0.0000 C   0  0  0  0  0  0  0  0  0  0  0  0
   -1.5000  -10.3923    0.0000 O   0  0  0  0  0  0  0  0  0  0  0  0
   -3.7500  -11.6913    0.0000 O   0  0  0  0  0  0  0  0  0  0  0  0
  2  1  1  6
  2  3  1  0
  3  4  1  0
  4  5  2  0
  5  6  1  0
  6  7  2  0
  7  8  1  0
  8  9  2  0
  2 10  1  0
 10 11  2  0
 10 12  1  0
 12 13  1  0
 13 14  1  0
 14 15  1  0
 15 16  2  0
 16 17  1  0
 17 18  2  0
 18 19  1  0
 19 20  1  0
 20 21  1  0
 19 22  2  0
 18 23  1  0
 23 24  1  0
 12 25  1  0
 25 26  1  0
 26 27  2  0
 26 28  1  0
 28 29  1  0
 29 30  1  6
 30 31  1  0
 31 32  3  0
 29 33  1  0
 33 34  2  0
 33 35  1  0
  9  4  1  0
 22 15  1  0
M  END
$$$$

     RDKit          2D

 36 37  0  0  0  0  0  0  0  0999 V2000
   -0.7500   -3.8971    0.0000 N   0  0  0  0  0  0  0  0  0  0  0  0
   -1.5000   -5.1962    0.0000 C   0  0  0  0  0  0  0  0  0  0  0  0
    0.7500   -3.8971    0.0000 C   0  0  0  0  0  0  0  0  0  0  0  0
    1.5000   -2.5981    0.0000 C   0  0  0  0  0  0  0  0  0  0  0  0
    0.7500   -1.2990    0.0000 C   0  0  0  0  0  0  0  0  0  0  0  0
    1.5000    0.0000    0.0000 C   0  0  0  0  0  0  0  0  0  0  0  0
    0.7500    1.2990    0.0000 C   0  0  0  0  0  0  0  0  0  0  0  0
   -0.7500    1.2990    0.0000 C   0  0  0  0  0  0  0  0  0  0  0  0
   -1.5000    0.0000    0.0000 C   0  0  0  0  0  0  0  0  0  0  0  0
   -0.7500   -1.2990    0.0000 C   0  0  0  0  0  0  0  0  0  0  0  0
    1.5000   -5.1962    0.0000 C   0  0  0  0  0  0  0  0  0  0  0  0
    3.0000   -5.1962    0.0000 O   0  0  0  0  0  0  0  0  0  0  0  0
    0.7500   -6.4952    0.0000 N   0  0  0  0  0  0  0  0  0  0  0  0
    1.5000   -7.7942    0.0000 C   0  0  0  0  0  0  0  0  0  0  0  0
    0.7500   -9.0933    0.0000 C   0  0  0  0  0  0  0  0  0  0  0  0
    1.5000  -10.3923    0.0000 C   0  0  0  0  0  0  0  0  0  0  0  0
    0.7500  -11.6913    0.0000 C   0  0  0  0  0  0  0  0  0  0  0  0
    1.5000  -12.9904    0.0000 C   0  0  0  0  0  0  0  0  0  0  0  0
    3.0000  -12.9904    0.0000 C   0  0  0  0  0  0  0  0  0  0  0  0
    3.7500  -11.6913    0.0000 C   0  0  0  0  0  0  0  0  0  0  0  0
    5.2500  -11.6913    0.0000 O   0  0  0  0  0  0  0  0  0  0  0  0
    6.0000  -10.3923    0.0000 C   0  0  0  0  0  0  0  0  0  0  0  0
    3.0000  -10.3923    0.0000 C   0  0  0  0  0  0  0  0  0  0  0  0
    3.7500  -14.2894    0.0000 O   0  0  0  0  0  0  0  0  0  0  0  0
    3.0000  -15.5885    0.0000 C   0  0  0  0  0  0  0  0  0  0  0  0
   -0.7500   -6.4952    0.0000 C   0  0  0  0  0  0  0  0  0  0  0  0
   -1.5000   -7.7942    0.0000 C   0  0  0  0  0  0  0  0  0  0  0  0
   -0.7500   -9.0933    0.0000 O   0  0  0  0  0  0  0  0  0  0  0  0
   -3.0000   -7.7942    0.0000 N   0  0  0  0  0  0  0  0  0  0  0  0
   -3.7500   -9.0933    0.0000 C   0  0  0  0  0  0  0  0  0  0  0  0
   -5.2500   -9.0933    0.0000 C   0  0  0  0  0  0  0  0  0  0  0  0
   -6.0000  -10.3923    0.0000 C   0  0  0  0  0  0  0  0  0  0  0  0
   -6.7500  -11.6913    0.0000 C   0  0  0  0  0  0  0  0  0  0  0  0
   -3.0000  -10.3923    0.0000 C   0  0  0  0  0  0  0  0  0  0  0  0
   -1.5000  -10.3923    0.0000 O   0  0  0  0  0  0  0  0  0  0  0  0
   -3.7500  -11.6913    0.0000 O   0  0  0  0  0  0  0  0  0  0  0  0
  1  2  1  0
  1  3  1  0
  3  4  1  1
  4  5  1  0
  5  6  2  0
  6  7  1  0
  7  8  2  0
  8  9  1  0
  9 10  2  0
  3 11  1  0
 11 12  2  0
 11 13  1  0
 13 14  1  0
 14 15  1  0
 15 16  1  0
 16 17  2  0
 17 18  1  0
 18 19  2  0
 19 20  1  0
 20 21  1  0
 21 22  1  0
 20 23  2  0
 19 24  1  0
 24 25  1  0
 13 26  1  0
 26 27  1  0
 27 28  2  0
 27 29  1  0
 29 30  1  0
 30 31  1  6
 31 32  1  0
 32 33  3  0
 30 34  1  0
 34 35  2  0
 34 36  1  0
 10  5  1  0
 23 16  1  0
M  END
$$$$

     RDKit          2D

 36 37  0  0  0  0  0  0  0  0999 V2000
   -0.7500   -3.8971    0.0000 N   0  0  0  0  0  0  0  0  0  0  0  0
   -1.5000   -5.1962    0.0000 C   0  0  0  0  0  0  0  0  0  0  0  0
    0.7500   -3.8971    0.0000 C   0  0  0  0  0  0  0  0  0  0  0  0
    1.5000   -2.5981    0.0000 C   0  0  0  0  0  0  0  0  0  0  0  0
    0.7500   -1.2990    0.0000 C   0  0  0  0  0  0  0  0  0  0  0  0
    1.5000    0.0000    0.0000 C   0  0  0  0  0  0  0  0  0  0  0  0
    0.7500    1.2990    0.0000 C   0  0  0  0  0  0  0  0  0  0  0  0
   -0.7500    1.2990    0.0000 C   0  0  0  0  0  0  0  0  0  0  0  0
   -1.5000    0.0000    0.0000 C   0  0  0  0  0  0  0  0  0  0  0  0
   -0.7500   -1.2990    0.0000 C   0  0  0  0  0  0  0  0  0  0  0  0
    1.5000   -5.1962    0.0000 C   0  0  0  0  0  0  0  0  0  0  0  0
    3.0000   -5.1962    0.0000 O   0  0  0  0  0  0  0  0  0  0  0  0
    0.7500   -6.4952    0.0000 N   0  0  0  0  0  0  0  0  0  0  0  0
    1.5000   -7.7942    0.0000 C   0  0  0  0  0  0  0  0  0  0  0  0
    0.7500   -9.0933    0.0000 C   0  0  0  0  0  0  0  0  0  0  0  0
    1.5000  -10.3923    0.0000 C   0  0  0  0  0  0  0  0  0  0  0  0
    0.7500  -11.6913    0.0000 C   0  0  0  0  0  0  0  0  0  0  0  0
    1.5000  -12.9904    0.0000 C   0  0  0  0  0  0  0  0  0  0  0  0
    3.0000  -12.9904    0.0000 C   0  0  0  0  0  0  0  0  0  0  0  0
    3.7500  -11.6913    0.0000 C   0  0  0  0  0  0  0  0  0  0  0  0
    5.2500  -11.6913    0.0000 O   0  0  0  0  0  0  0  0  0  0  0  0
    6.0000  -10.3923    0.0000 C   0  0  0  0  0  0  0  0  0  0  0  0
    3.0000  -10.3923    0.0000 C   0  0  0  0  0  0  0  0  0  0  0  0
    3.7500  -14.2894    0.0000 O   0  0  0  0  0  0  0  0  0  0  0  0
    3.0000  -15.5885    0.0000 C   0  0  0  0  0  0  0  0  0  0  0  0
   -0.7500   -6.4952    0.0000 C   0  0  0  0  0  0  0  0  0  0  0  0
   -1.5000   -7.7942    0.0000 C   0  0  0  0  0  0  0  0  0  0  0  0
   -0.7500   -9.0933    0.0000 O   0  0  0  0  0  0  0  0  0  0  0  0
   -3.0000   -7.7942    0.0000 N   0  0  0  0  0  0  0  0  0  0  0  0
   -3.7500   -9.0933    0.0000 C   0  0  0  0  0  0  0  0  0  0  0  0
   -5.2500   -9.0933    0.0000 C   0  0  0  0  0  0  0  0  0  0  0  0
   -6.0000  -10.3923    0.0000 C   0  0  0  0  0  0  0  0  0  0  0  0
   -6.7500  -11.6913    0.0000 C   0  0  0  0  0  0  0  0  0  0  0  0
   -3.0000  -10.3923    0.0000 C   0  0  0  0  0  0  0  0  0  0  0  0
   -1.5000  -10.3923    0.0000 O   0  0  0  0  0  0  0  0  0  0  0  0
   -3.7500  -11.6913    0.0000 O   0  0  0  0  0  0  0  0  0  0  0  0
  1  2  1  0
  1  3  1  0
  3  4  1  6
  4  5  1  0
  5  6  2  0
  6  7  1  0
  7  8  2  0
  8  9  1  0
  9 10  2  0
  3 11  1  0
 11 12  2  0
 11 13  1  0
 13 14  1  0
 14 15  1  0
 15 16  1  0
 16 17  2  0
 17 18  1  0
 18 19  2  0
 19 20  1  0
 20 21  1  0
 21 22  1  0
 20 23  2  0
 19 24  1  0
 24 25  1  0
 13 26  1  0
 26 27  1  0
 27 28  2  0
 27 29  1  0
 29 30  1  0
 30 31  1  6
 31 32  1  0
 32 33  3  0
 30 34  1  0
 34 35  2  0
 34 36  1  0
 10  5  1  0
 23 16  1  0
M  END
$$$$

     RDKit          2D

 31 31  0  0  0  0  0  0  0  0999 V2000
    8.2500   -1.2990    0.0000 N   0  0  0  0  0  0  0  0  0  0  0  0
    7.5000    0.0000    0.0000 C   0  0  0  0  0  0  0  0  0  0  0  0
    8.2500    1.2990    0.0000 C   0  0  0  0  0  0  0  0  0  0  0  0
    7.5000    2.5981    0.0000 O   0  0  0  0  0  0  0  0  0  0  0  0
    9.7500    1.2990    0.0000 C   0  0  0  0  0  0  0  0  0  0  0  0
    6.0000    0.0000    0.0000 C   0  0  0  0  0  0  0  0  0  0  0  0
    5.2500    1.2990    0.0000 O   0  0  0  0  0  0  0  0  0  0  0  0
    5.2500   -1.2990    0.0000 N   0  0  0  0  0  0  0  0  0  0  0  0
    3.7500   -1.2990    0.0000 C   0  0  0  0  0  0  0  0  0  0  0  0
    3.0000    0.0000    0.0000 C   0  0  0  0  0  0  0  0  0  0  0  0
    1.5000    0.0000    0.0000 C   0  0  0  0  0  0  0  0  0  0  0  0
    0.7500   -1.2990    0.0000 C   0  0  0  0  0  0  0  0  0  0  0  0
   -0.7500   -1.2990    0.0000 C   0  0  0  0  0  0  0  0  0  0  0  0
   -1.5000    0.0000    0.0000 C   0  0  0  0  0  0  0  0  0  0  0  0
   -0.7500    1.2990    0.0000 C   0  0  0  0  0  0  0  0  0  0  0  0
   -1.5000    2.5981    0.0000 O   0  0  0  0  0  0  0  0  0  0  0  0
   -0.7500    3.8971    0.0000 C   0  0  0  0  0  0  0  0  0  0  0  0
    0.7500    1.2990    0.0000 C   0  0  0  0  0  0  0  0  0  0  0  0
   -3.0000    0.0000    0.0000 O   0  0  0  0  0  0  0  0  0  0  0  0
   -3.7500    1.2990    0.0000 C   0  0  0  0  0  0  0  0  0  0  0  0
    6.0000   -2.5981    0.0000 C   0  0  0  0  0  0  0  0  0  0  0  0
    5.2500   -3.8971    0.0000 C   0  0  0  0  0  0  0  0  0  0  0  0
    3.7500   -3.8971    0.0000 O   0  0  0  0  0  0  0  0  0  0  0  0
    6.0000   -5.1962    0.0000 N   0  0  0  0  0  0  0  0  0  0  0  0
    5.2500   -6.4952    0.0000 C   0  0  0  0  0  0  0  0  0  0  0  0
    6.0000   -7.7942    0.0000 C   0  0  0  0  0  0  0  0  0  0  0  0
    5.2500   -9.0933    0.0000 C   0  0  0  0  0  0  0  0  0  0  0  0
    4.5000  -10.3923    0.0000 C   0  0  0  0  0  0  0  0  0  0  0  0
    3.7500   -6.4952    0.0000 C   0  0  0  0  0  0  0  0  0  0  0  0
    3.0000   -5.1962    0.0000 O   0  0  0  0  0  0  0  0  0  0  0  0
    3.0000   -7.7942    0.0000 O   0  0  0  0  0  0  0  0  0  0  0  0
  2  1  1  6
  2  3  1  0
  3  4  1  0
  3  5  1  6
  2  6  1  0
  6  7  2  0
  6  8  1  0
  8  9  1  0
  9 10  1  0
 10 11  1  0
 11 12  2  0
 12 13  1  0
 13 14  2  0
 14 15  1  0
 15 16  1  0
 16 17  1  0
 15 18  2  0
 14 19  1  0
 19 20  1  0
  8 21  1  0
 21 22  1  0
 22 23  2  0
 22 24  1  0
 24 25  1  0
 25 26  1  1
 26 27  1  0
 27 28  3  0
 25 29  1  0
 29 30  2  0
 29 31  1  0
 18 11  1  0
M  END
$$$$

     RDKit          2D

 31 31  0  0  0  0  0  0  0  0999 V2000
    8.2500   -1.2990    0.0000 N   0  0  0  0  0  0  0  0  0  0  0  0
    7.5000    0.0000    0.0000 C   0  0  0  0  0  0  0  0  0  0  0  0
    8.2500    1.2990    0.0000 C   0  0  0  0  0  0  0  0  0  0  0  0
    7.5000    2.5981    0.0000 O   0  0  0  0  0  0  0  0  0  0  0  0
    9.7500    1.2990    0.0000 C   0  0  0  0  0  0  0  0  0  0  0  0
    6.0000    0.0000    0.0000 C   0  0  0  0  0  0  0  0  0  0  0  0
    5.2500    1.2990    0.0000 O   0  0  0  0  0  0  0  0  0  0  0  0
    5.2500   -1.2990    0.0000 N   0  0  0  0  0  0  0  0  0  0  0  0
    3.7500   -1.2990    0.0000 C   0  0  0  0  0  0  0  0  0  0  0  0
    3.0000    0.0000    0.0000 C   0  0  0  0  0  0  0  0  0  0  0  0
    1.5000    0.0000    0.0000 C   0  0  0  0  0  0  0  0  0  0  0  0
    0.7500   -1.2990    0.0000 C   0  0  0  0  0  0  0  0  0  0  0  0
   -0.7500   -1.2990    0.0000 C   0  0  0  0  0  0  0  0  0  0  0  0
   -1.5000    0.0000    0.0000 C   0  0  0  0  0  0  0  0  0  0  0  0
   -0.7500    1.2990    0.0000 C   0  0  0  0  0  0  0  0  0  0  0  0
   -1.5000    2.5981    0.0000 O   0  0  0  0  0  0  0  0  0  0  0  0
   -0.7500    3.8971    0.0000 C   0  0  0  0  0  0  0  0  0  0  0  0
    0.7500    1.2990    0.0000 C   0  0  0  0  0  0  0  0  0  0  0  0
   -3.0000    0.0000    0.0000 O   0  0  0  0  0  0  0  0  0  0  0  0
   -3.7500    1.2990    0.0000 C   0  0  0  0  0  0  0  0  0  0  0  0
    6.0000   -2.5981    0.0000 C   0  0  0  0  0  0  0  0  0  0  0  0
    5.2500   -3.8971    0.0000 C   0  0  0  0  0  0  0  0  0  0  0  0
    3.7500   -3.8971    0.0000 O   0  0  0  0  0  0  0  0  0  0  0  0
    6.0000   -5.1962    0.0000 N   0  0  0  0  0  0  0  0  0  0  0  0
    5.2500   -6.4952    0.0000 C   0  0  0  0  0  0  0  0  0  0  0  0
    6.0000   -7.7942    0.0000 C   0  0  0  0  0  0  0  0  0  0  0  0
    5.2500   -9.0933    0.0000 C   0  0  0  0  0  0  0  0  0  0  0  0
    4.5000  -10.3923    0.0000 C   0  0  0  0  0  0  0  0  0  0  0  0
    3.7500   -6.4952    0.0000 C   0  0  0  0  0  0  0  0  0  0  0  0
    3.0000   -5.1962    0.0000 O   0  0  0  0  0  0  0  0  0  0  0  0
    3.0000   -7.7942    0.0000 O   0  0  0  0  0  0  0  0  0  0  0  0
  2  1  1  1
  2  3  1  0
  3  4  1  0
  3  5  1  6
  2  6  1  0
  6  7  2  0
  6  8  1  0
  8  9  1  0
  9 10  1  0
 10 11  1  0
 11 12  2  0
 12 13  1  0
 13 14  2  0
 14 15  1  0
 15 16  1  0
 16 17  1  0
 15 18  2  0
 14 19  1  0
 19 20  1  0
  8 21  1  0
 21 22  1  0
 22 23  2  0
 22 24  1  0
 24 25  1  0
 25 26  1  1
 26 27  1  0
 27 28  3  0
 25 29  1  0
 29 30  2  0
 29 31  1  0
 18 11  1  0
M  END
$$$$

     RDKit          2D

 32 32  0  0  0  0  0  0  0  0999 V2000
    8.2500   -1.2990    0.0000 N   0  0  0  0  0  0  0  0  0  0  0  0
    9.7500   -1.2990    0.0000 C   0  0  0  0  0  0  0  0  0  0  0  0
    7.5000    0.0000    0.0000 C   0  0  0  0  0  0  0  0  0  0  0  0
    8.2500    1.2990    0.0000 C   0  0  0  0  0  0  0  0  0  0  0  0
    7.5000    2.5981    0.0000 O   0  0  0  0  0  0  0  0  0  0  0  0
    9.7500    1.2990    0.0000 C   0  0  0  0  0  0  0  0  0  0  0  0
    6.0000    0.0000    0.0000 C   0  0  0  0  0  0  0  0  0  0  0  0
    5.2500    1.2990    0.0000 O   0  0  0  0  0  0  0  0  0  0  0  0
    5.2500   -1.2990    0.0000 N   0  0  0  0  0  0  0  0  0  0  0  0
    3.7500   -1.2990    0.0000 C   0  0  0  0  0  0  0  0  0  0  0  0
    3.0000    0.0000    0.0000 C   0  0  0  0  0  0  0  0  0  0  0  0
    1.5000    0.0000    0.0000 C   0  0  0  0  0  0  0  0  0  0  0  0
    0.7500   -1.2990    0.0000 C   0  0  0  0  0  0  0  0  0  0  0  0
   -0.7500   -1.2990    0.0000 C   0  0  0  0  0  0  0  0  0  0  0  0
   -1.5000    0.0000    0.0000 C   0  0  0  0  0  0  0  0  0  0  0  0
   -0.7500    1.2990    0.0000 C   0  0  0  0  0  0  0  0  0  0  0  0
   -1.5000    2.5981    0.0000 O   0  0  0  0  0  0  0  0  0  0  0  0
   -0.7500    3.8971    0.0000 C   0  0  0  0  0  0  0  0  0  0  0  0
    0.7500    1.2990    0.0000 C   0  0  0  0  0  0  0  0  0  0  0  0
   -3.0000    0.0000    0.0000 O   0  0  0  0  0  0  0  0  0  0  0  0
   -3.7500    1.2990    0.0000 C   0  0  0  0  0  0  0  0  0  0  0  0
    6.0000   -2.5981    0.0000 C   0  0  0  0  0  0  0  0  0  0  0  0
    5.2500   -3.8971    0.0000 C   0  0  0  0  0  0  0  0  0  0  0  0
    3.7500   -3.8971    0.0000 O   0  0  0  0  0  0  0  0  0  0  0  0
    6.0000   -5.1962    0.0000 N   0  0  0  0  0  0  0  0  0  0  0  0
    5.2500   -6.4952    0.0000 C   0  0  0  0  0  0  0  0  0  0  0  0
    6.0000   -7.7942    0.0000 C   0  0  0  0  0  0  0  0  0  0  0  0
    5.2500   -9.0933    0.0000 C   0  0  0  0  0  0  0  0  0  0  0  0
    4.5000  -10.3923    0.0000 C   0  0  0  0  0  0  0  0  0  0  0  0
    3.7500   -6.4952    0.0000 C   0  0  0  0  0  0  0  0  0  0  0  0
    3.0000   -5.1962    0.0000 O   0  0  0  0  0  0  0  0  0  0  0  0
    3.0000   -7.7942    0.0000 O   0  0  0  0  0  0  0  0  0  0  0  0
  1  2  1  0
  3  1  1  6
  3  4  1  0
  4  5  1  0
  4  6  1  6
  3  7  1  0
  7  8  2  0
  7  9  1  0
  9 10  1  0
 10 11  1  0
 11 12  1  0
 12 13  2  0
 13 14  1  0
 14 15  2  0
 15 16  1  0
 16 17  1  0
 17 18  1  0
 16 19  2  0
 15 20  1  0
 20 21  1  0
  9 22  1  0
 22 23  1  0
 23 24  2  0
 23 25  1  0
 25 26  1  0
 26 27  1  1
 27 28  1  0
 28 29  3  0
 26 30  1  0
 30 31  2  0
 30 32  1  0
 19 12  1  0
M  END
$$$$

     RDKit          2D

 32 32  0  0  0  0  0  0  0  0999 V2000
    8.2500   -1.2990    0.0000 N   0  0  0  0  0  0  0  0  0  0  0  0
    9.7500   -1.2990    0.0000 C   0  0  0  0  0  0  0  0  0  0  0  0
    7.5000    0.0000    0.0000 C   0  0  0  0  0  0  0  0  0  0  0  0
    8.2500    1.2990    0.0000 C   0  0  0  0  0  0  0  0  0  0  0  0
    7.5000    2.5981    0.0000 O   0  0  0  0  0  0  0  0  0  0  0  0
    9.7500    1.2990    0.0000 C   0  0  0  0  0  0  0  0  0  0  0  0
    6.0000    0.0000    0.0000 C   0  0  0  0  0  0  0  0  0  0  0  0
    5.2500    1.2990    0.0000 O   0  0  0  0  0  0  0  0  0  0  0  0
    5.2500   -1.2990    0.0000 N   0  0  0  0  0  0  0  0  0  0  0  0
    3.7500   -1.2990    0.0000 C   0  0  0  0  0  0  0  0  0  0  0  0
    3.0000    0.0000    0.0000 C   0  0  0  0  0  0  0  0  0  0  0  0
    1.5000    0.0000    0.0000 C   0  0  0  0  0  0  0  0  0  0  0  0
    0.7500   -1.2990    0.0000 C   0  0  0  0  0  0  0  0  0  0  0  0
   -0.7500   -1.2990    0.0000 C   0  0  0  0  0  0  0  0  0  0  0  0
   -1.5000    0.0000    0.0000 C   0  0  0  0  0  0  0  0  0  0  0  0
   -0.7500    1.2990    0.0000 C   0  0  0  0  0  0  0  0  0  0  0  0
   -1.5000    2.5981    0.0000 O   0  0  0  0  0  0  0  0  0  0  0  0
   -0.7500    3.8971    0.0000 C   0  0  0  0  0  0  0  0  0  0  0  0
    0.7500    1.2990    0.0000 C   0  0  0  0  0  0  0  0  0  0  0  0
   -3.0000    0.0000    0.0000 O   0  0  0  0  0  0  0  0  0  0  0  0
   -3.7500    1.2990    0.0000 C   0  0  0  0  0  0  0  0  0  0  0  0
    6.0000   -2.5981    0.0000 C   0  0  0  0  0  0  0  0  0  0  0  0
    5.2500   -3.8971    0.0000 C   0  0  0  0  0  0  0  0  0  0  0  0
    3.7500   -3.8971    0.0000 O   0  0  0  0  0  0  0  0  0  0  0  0
    6.0000   -5.1962    0.0000 N   0  0  0  0  0  0  0  0  0  0  0  0
    5.2500   -6.4952    0.0000 C   0  0  0  0  0  0  0  0  0  0  0  0
    6.0000   -7.7942    0.0000 C   0  0  0  0  0  0  0  0  0  0  0  0
    5.2500   -9.0933    0.0000 C   0  0  0  0  0  0  0  0  0  0  0  0
    4.5000  -10.3923    0.0000 C   0  0  0  0  0  0  0  0  0  0  0  0
    3.7500   -6.4952    0.0000 C   0  0  0  0  0  0  0  0  0  0  0  0
    3.0000   -5.1962    0.0000 O   0  0  0  0  0  0  0  0  0  0  0  0
    3.0000   -7.7942    0.0000 O   0  0  0  0  0  0  0  0  0  0  0  0
  1  2  1  0
  3  1  1  1
  3  4  1  0
  4  5  1  0
  4  6  1  6
  3  7  1  0
  7  8  2  0
  7  9  1  0
  9 10  1  0
 10 11  1  0
 11 12  1  0
 12 13  2  0
 13 14  1  0
 14 15  2  0
 15 16  1  0
 16 17  1  0
 17 18  1  0
 16 19  2  0
 15 20  1  0
 20 21  1  0
  9 22  1  0
 22 23  1  0
 23 24  2  0
 23 25  1  0
 25 26  1  0
 26 27  1  1
 27 28  1  0
 28 29  3  0
 26 30  1  0
 30 31  2  0
 30 32  1  0
 19 12  1  0
M  END
$$$$

     RDKit          2D

 32 32  0  0  0  0  0  0  0  0999 V2000
    8.2500    1.2990    0.0000 N   0  0  0  0  0  0  0  0  0  0  0  0
    9.7500    1.2990    0.0000 C   0  0  0  0  0  0  0  0  0  0  0  0
   10.5000    2.5981    0.0000 C   0  0  0  0  0  0  0  0  0  0  0  0
   12.0000    2.5981    0.0000 C   0  0  0  0  0  0  0  0  0  0  0  0
    9.7500    3.8971    0.0000 C   0  0  0  0  0  0  0  0  0  0  0  0
    7.5000    0.0000    0.0000 C   0  0  0  0  0  0  0  0  0  0  0  0
    6.0000    0.0000    0.0000 C   0  0  0  0  0  0  0  0  0  0  0  0
    5.2500    1.2990    0.0000 O   0  0  0  0  0  0  0  0  0  0  0  0
    5.2500   -1.2990    0.0000 N   0  0  0  0  0  0  0  0  0  0  0  0
    3.7500   -1.2990    0.0000 C   0  0  0  0  0  0  0  0  0  0  0  0
    3.0000    0.0000    0.0000 C   0  0  0  0  0  0  0  0  0  0  0  0
    1.5000    0.0000    0.0000 C   0  0  0  0  0  0  0  0  0  0  0  0
    0.7500   -1.2990    0.0000 C   0  0  0  0  0  0  0  0  0  0  0  0
   -0.7500   -1.2990    0.0000 C   0  0  0  0  0  0  0  0  0  0  0  0
   -1.5000    0.0000    0.0000 C   0  0  0  0  0  0  0  0  0  0  0  0
   -0.7500    1.2990    0.0000 C   0  0  0  0  0  0  0  0  0  0  0  0
   -1.5000    2.5981    0.0000 O   0  0  0  0  0  0  0  0  0  0  0  0
   -0.7500    3.8971    0.0000 C   0  0  0  0  0  0  0  0  0  0  0  0
    0.7500    1.2990    0.0000 C   0  0  0  0  0  0  0  0  0  0  0  0
   -3.0000    0.0000    0.0000 O   0  0  0  0  0  0  0  0  0  0  0  0
   -3.7500    1.2990    0.0000 C   0  0  0  0  0  0  0  0  0  0  0  0
    6.0000   -2.5981    0.0000 C   0  0  0  0  0  0  0  0  0  0  0  0
    7.5000   -2.5981    0.0000 C   0  0  0  0  0  0  0  0  0  0  0  0
    8.2500   -1.2990    0.0000 O   0  0  0  0  0  0  0  0  0  0  0  0
    8.2500   -3.8971    0.0000 N   0  0  0  0  0  0  0  0  0  0  0  0
    9.7500   -3.8971    0.0000 C   0  0  0  0  0  0  0  0  0  0  0  0
   10.5000   -5.1962    0.0000 C   0  0  0  0  0  0  0  0  0  0  0  0
   12.0000   -5.1962    0.0000 C   0  0  0  0  0  0  0  0  0  0  0  0
   13.5000   -5.1962    0.0000 C   0  0  0  0  0  0  0  0  0  0  0  0
   10.5000   -2.5981    0.0000 C   0  0  0  0  0  0  0  0  0  0  0  0
    9.7500   -1.2990    0.0000 O   0  0  0  0  0  0  0  0  0  0  0  0
   12.0000   -2.5981    0.0000 O   0  0  0  0  0  0  0  0  0  0  0  0
  1  2  1  0
  2  3  1  0
  3  4  1  0
  3  5  1  0
  1  6  1  0
  6  7  1  0
  7  8  2  0
  7  9  1  0
  9 10  1  0
 10 11  1  0
 11 12  1  0
 12 13  2  0
 13 14  1  0
 14 15  2  0
 15 16  1  0
 16 17  1  0
 17 18  1  0
 16 19  2  0
 15 20  1  0
 20 21  1  0
  9 22  1  0
 22 23  1  0
 23 24  2  0
 23 25  1  0
 25 26  1  0
 26 27  1  6
 27 28  1  0
 28 29  3  0
 26 30  1  0
 30 31  2  0
 30 32  1  0
 19 12  1  0
M  END
$$$$

     RDKit          2D

 35 35  0  0  0  0  0  0  0  0999 V2000
    8.2500    1.2990    0.0000 N   0  0  0  0  0  0  0  0  0  0  0  0
    9.7500    1.2990    0.0000 C   0  0  0  0  0  0  0  0  0  0  0  0
   10.5000    2.5981    0.0000 C   0  0  0  0  0  0  0  0  0  0  0  0
   12.0000    2.5981    0.0000 C   0  0  0  0  0  0  0  0  0  0  0  0
   12.7500    3.8971    0.0000 O   0  0  0  0  0  0  0  0  0  0  0  0
   14.2500    3.8971    0.0000 C   0  0  0  0  0  0  0  0  0  0  0  0
   15.0000    5.1962    0.0000 C   0  0  0  0  0  0  0  0  0  0  0  0
   15.0000    2.5981    0.0000 C   0  0  0  0  0  0  0  0  0  0  0  0
    7.5000    0.0000    0.0000 C   0  0  0  0  0  0  0  0  0  0  0  0
    6.0000    0.0000    0.0000 C   0  0  0  0  0  0  0  0  0  0  0  0
    5.2500    1.2990    0.0000 O   0  0  0  0  0  0  0  0  0  0  0  0
    5.2500   -1.2990    0.0000 N   0  0  0  0  0  0  0  0  0  0  0  0
    3.7500   -1.2990    0.0000 C   0  0  0  0  0  0  0  0  0  0  0  0
    3.0000    0.0000    0.0000 C   0  0  0  0  0  0  0  0  0  0  0  0
    1.5000    0.0000    0.0000 C   0  0  0  0  0  0  0  0  0  0  0  0
    0.7500   -1.2990    0.0000 C   0  0  0  0  0  0  0  0  0  0  0  0
   -0.7500   -1.2990    0.0000 C   0  0  0  0  0  0  0  0  0  0  0  0
   -1.5000    0.0000    0.0000 C   0  0  0  0  0  0  0  0  0  0  0  0
   -0.7500    1.2990    0.0000 C   0  0  0  0  0  0  0  0  0  0  0  0
   -1.5000    2.5981    0.0000 O   0  0  0  0  0  0  0  0  0  0  0  0
   -0.7500    3.8971    0.0000 C   0  0  0  0  0  0  0  0  0  0  0  0
    0.7500    1.2990    0.0000 C   0  0  0  0  0  0  0  0  0  0  0  0
   -3.0000    0.0000    0.0000 O   0  0  0  0  0  0  0  0  0  0  0  0
   -3.7500    1.2990    0.0000 C   0  0  0  0  0  0  0  0  0  0  0  0
    6.0000   -2.5981    0.0000 C   0  0  0  0  0  0  0  0  0  0  0  0
    7.5000   -2.5981    0.0000 C   0  0  0  0  0  0  0  0  0  0  0  0
    8.2500   -1.2990    0.0000 O   0  0  0  0  0  0  0  0  0  0  0  0
    8.2500   -3.8971    0.0000 N   0  0  0  0  0  0  0  0  0  0  0  0
    9.7500   -3.8971    0.0000 C   0  0  0  0  0  0  0  0  0  0  0  0
   10.5000   -5.1962    0.0000 C   0  0  0  0  0  0  0  0  0  0  0  0
   12.0000   -5.1962    0.0000 C   0  0  0  0  0  0  0  0  0  0  0  0
   13.5000   -5.1962    0.0000 C   0  0  0  0  0  0  0  0  0  0  0  0
   10.5000   -2.5981    0.0000 C   0  0  0  0  0  0  0  0  0  0  0  0
    9.7500   -1.2990    0.0000 O   0  0  0  0  0  0  0  0  0  0  0  0
   12.0000   -2.5981    0.0000 O   0  0  0  0  0  0  0  0  0  0  0  0
  1  2  1  0
  2  3  1  0
  3  4  1  0
  4  5  1  0
  5  6  1  0
  6  7  1  0
  6  8  1  0
  1  9  1  0
  9 10  1  0
 10 11  2  0
 10 12  1  0
 12 13  1  0
 13 14  1  0
 14 15  1  0
 15 16  2  0
 16 17  1  0
 17 18  2  0
 18 19  1  0
 19 20  1  0
 20 21  1  0
 19 22  2  0
 18 23  1  0
 23 24  1  0
 12 25  1  0
 25 26  1  0
 26 27  2  0
 26 28  1  0
 28 29  1  0
 29 30  1  6
 30 31  1  0
 31 32  3  0
 29 33  1  0
 33 34  2  0
 33 35  1  0
 22 15  1  0
M  END
$$$$

     RDKit          2D

 37 38  0  0  0  0  0  0  0  0999 V2000
    0.7500   -6.4952    0.0000 N   0  0  0  0  0  0  0  0  0  0  0  0
    1.5000   -5.1962    0.0000 C   0  0  0  0  0  0  0  0  0  0  0  0
    0.7500   -3.8971    0.0000 C   0  0  0  0  0  0  0  0  0  0  0  0
    1.5000   -2.5981    0.0000 O   0  0  0  0  0  0  0  0  0  0  0  0
    0.7500   -1.2990    0.0000 C   0  0  0  0  0  0  0  0  0  0  0  0
    1.5000    0.0000    0.0000 C   0  0  0  0  0  0  0  0  0  0  0  0
    0.7500    1.2990    0.0000 C   0  0  0  0  0  0  0  0  0  0  0  0
   -0.7500    1.2990    0.0000 C   0  0  0  0  0  0  0  0  0  0  0  0
   -1.5000    0.0000    0.0000 C   0  0  0  0  0  0  0  0  0  0  0  0
   -0.7500   -1.2990    0.0000 C   0  0  0  0  0  0  0  0  0  0  0  0
    1.5000   -7.7942    0.0000 C   0  0  0  0  0  0  0  0  0  0  0  0
    0.7500   -9.0933    0.0000 C   0  0  0  0  0  0  0  0  0  0  0  0
   -0.7500   -9.0933    0.0000 O   0  0  0  0  0  0  0  0  0  0  0  0
    1.5000  -10.3923    0.0000 N   0  0  0  0  0  0  0  0  0  0  0  0
    0.7500  -11.6913    0.0000 C   0  0  0  0  0  0  0  0  0  0  0  0
    1.5000  -12.9904    0.0000 C   0  0  0  0  0  0  0  0  0  0  0  0
    0.7500  -14.2894    0.0000 C   0  0  0  0  0  0  0  0  0  0  0  0
   -0.7500  -14.2894    0.0000 C   0  0  0  0  0  0  0  0  0  0  0  0
   -1.5000  -15.5885    0.0000 C   0  0  0  0  0  0  0  0  0  0  0  0
   -0.7500  -16.8875    0.0000 C   0  0  0  0  0  0  0  0  0  0  0  0
    0.7500  -16.8875    0.0000 C   0  0  0  0  0  0  0  0  0  0  0  0
    1.5000  -18.1865    0.0000 O   0  0  0  0  0  0  0  0  0  0  0  0
    3.0000  -18.1865    0.0000 C   0  0  0  0  0  0  0  0  0  0  0  0
    1.5000  -15.5885    0.0000 C   0  0  0  0  0  0  0  0  0  0  0  0
   -1.5000  -18.1865    0.0000 O   0  0  0  0  0  0  0  0  0  0  0  0
   -3.0000  -18.1865    0.0000 C   0  0  0  0  0  0  0  0  0  0  0  0
    3.0000  -10.3923    0.0000 C   0  0  0  0  0  0  0  0  0  0  0  0
    3.7500  -11.6913    0.0000 C   0  0  0  0  0  0  0  0  0  0  0  0
    3.0000  -12.9904    0.0000 O   0  0  0  0  0  0  0  0  0  0  0  0
    5.2500  -11.6913    0.0000 N   0  0  0  0  0  0  0  0  0  0  0  0
    6.0000  -12.9904    0.0000 C   0  0  0  0  0  0  0  0  0  0  0  0
    7.5000  -12.9904    0.0000 C   0  0  0  0  0  0  0  0  0  0  0  0
    8.2500  -14.2894    0.0000 C   0  0  0  0  0  0  0  0  0  0  0  0
    9.0000  -15.5885    0.0000 C   0  0  0  0  0  0  0  0  0  0  0  0
    5.2500  -14.2894    0.0000 C   0  0  0  0  0  0  0  0  0  0  0  0
    3.7500  -14.2894    0.0000 O   0  0  0  0  0  0  0  0  0  0  0  0
    6.0000  -15.5885    0.0000 O   0  0  0  0  0  0  0  0  0  0  0  0
  1  2  1  0
  2  3  1  0
  3  4  1  0
  4  5  1  0
  5  6  2  0
  6  7  1  0
  7  8  2  0
  8  9  1  0
  9 10  2  0
  1 11  1  0
 11 12  1  0
 12 13  2  0
 12 14  1  0
 14 15  1  0
 15 16  1  0
 16 17  1  0
 17 18  2  0
 18 19  1  0
 19 20  2  0
 20 21  1  0
 21 22  1  0
 22 23  1  0
 21 24  2  0
 20 25  1  0
 25 26  1  0
 14 27  1  0
 27 28  1  0
 28 29  2  0
 28 30  1  0
 30 31  1  0
 31 32  1  1
 32 33  1  0
 33 34  3  0
 31 35  1  0
 35 36  2  0
 35 37  1  0
 24 17  1  0
 10  5  1  0
M  END
$$$$

     RDKit          2D

 40 41  0  0  0  0  0  0  0  0999 V2000
    1.5000   -5.1962    0.0000 N   0  0  0  0  0  0  0  0  0  0  0  0
    0.7500   -3.8971    0.0000 C   0  0  0  0  0  0  0  0  0  0  0  0
    1.5000   -2.5981    0.0000 C   0  0  0  0  0  0  0  0  0  0  0  0
    0.7500   -1.2990    0.0000 C   0  0  0  0  0  0  0  0  0  0  0  0
    1.5000    0.0000    0.0000 C   0  0  0  0  0  0  0  0  0  0  0  0
    0.7500    1.2990    0.0000 C   0  0  0  0  0  0  0  0  0  0  0  0
   -0.7500    1.2990    0.0000 C   0  0  0  0  0  0  0  0  0  0  0  0
   -1.5000    0.0000    0.0000 C   0  0  0  0  0  0  0  0  0  0  0  0
   -3.0000    0.0000    0.0000 O   0  0  0  0  0  0  0  0  0  0  0  0
   -3.7500   -1.2990    0.0000 C   0  0  0  0  0  0  0  0  0  0  0  0
   -0.7500   -1.2990    0.0000 C   0  0  0  0  0  0  0  0  0  0  0  0
   -1.5000    2.5981    0.0000 O   0  0  0  0  0  0  0  0  0  0  0  0
   -0.7500    3.8971    0.0000 C   0  0  0  0  0  0  0  0  0  0  0  0
    0.7500   -6.4952    0.0000 C   0  0  0  0  0  0  0  0  0  0  0  0
    1.5000   -7.7942    0.0000 C   0  0  0  0  0  0  0  0  0  0  0  0
    3.0000   -7.7942    0.0000 O   0  0  0  0  0  0  0  0  0  0  0  0
    0.7500   -9.0933    0.0000 N   0  0  0  0  0  0  0  0  0  0  0  0
    1.5000  -10.3923    0.0000 C   0  0  0  0  0  0  0  0  0  0  0  0
    0.7500  -11.6913    0.0000 C   0  0  0  0  0  0  0  0  0  0  0  0
    1.5000  -12.9904    0.0000 C   0  0  0  0  0  0  0  0  0  0  0  0
    0.7500  -14.2894    0.0000 C   0  0  0  0  0  0  0  0  0  0  0  0
    1.5000  -15.5885    0.0000 C   0  0  0  0  0  0  0  0  0  0  0  0
    3.0000  -15.5885    0.0000 C   0  0  0  0  0  0  0  0  0  0  0  0
    3.7500  -14.2894    0.0000 C   0  0  0  0  0  0  0  0  0  0  0  0
    5.2500  -14.2894    0.0000 O   0  0  0  0  0  0  0  0  0  0  0  0
    6.0000  -12.9904    0.0000 C   0  0  0  0  0  0  0  0  0  0  0  0
    3.0000  -12.9904    0.0000 C   0  0  0  0  0  0  0  0  0  0  0  0
    3.7500  -16.8875    0.0000 O   0  0  0  0  0  0  0  0  0  0  0  0
    3.0000  -18.1865    0.0000 C   0  0  0  0  0  0  0  0  0  0  0  0
   -0.7500   -9.0933    0.0000 C   0  0  0  0  0  0  0  0  0  0  0  0
   -1.5000  -10.3923    0.0000 C   0  0  0  0  0  0  0  0  0  0  0  0
   -0.7500  -11.6913    0.0000 O   0  0  0  0  0  0  0  0  0  0  0  0
   -3.0000  -10.3923    0.0000 N   0  0  0  0  0  0  0  0  0  0  0  0
   -3.7500  -11.6913    0.0000 C   0  0  0  0  0  0  0  0  0  0  0  0
   -5.2500  -11.6913    0.0000 C   0  0  0  0  0  0  0  0  0  0  0  0
   -6.0000  -12.9904    0.0000 C   0  0  0  0  0  0  0  0  0  0  0  0
   -6.7500  -14.2894    0.0000 C   0  0  0  0  0  0  0  0  0  0  0  0
   -3.0000  -12.9904    0.0000 C   0  0  0  0  0  0  0  0  0  0  0  0
   -1.5000  -12.9904    0.0000 O   0  0  0  0  0  0  0  0  0  0  0  0
   -3.7500  -14.2894    0.0000 O   0  0  0  0  0  0  0  0  0  0  0  0
  1  2  1  0
  2  3  1  0
  3  4  1  0
  4  5  2  0
  5  6  1  0
  6  7  2  0
  7  8  1  0
  8  9  1  0
  9 10  1  0
  8 11  2  0
  7 12  1  0
 12 13  1  0
  1 14  1  0
 14 15  1  0
 15 16  2  0
 15 17  1  0
 17 18  1  0
 18 19  1  0
 19 20  1  0
 20 21  2  0
 21 22  1  0
 22 23  2  0
 23 24  1  0
 24 25  1  0
 25 26  1  0
 24 27  2  0
 23 28  1  0
 28 29  1  0
 17 30  1  0
 30 31  1  0
 31 32  2  0
 31 33  1  0
 33 34  1  0
 34 35  1  6
 35 36  1  0
 36 37  3  0
 34 38  1  0
 38 39  2  0
 38 40  1  0
 11  4  1  0
 27 20  1  0
M  END
$$$$

     RDKit          2D

 47 48  0  0  0  0  0  0  0  0999 V2000
    9.1033   -0.2634    0.0000 N   0  0  0  0  0  0  0  0  0  0  0  0
   10.1070   -1.3781    0.0000 C   0  0  0  0  0  0  0  0  0  0  0  0
   11.5742   -1.0663    0.0000 C   0  0  0  0  0  0  0  0  0  0  0  0
   12.0377    0.3603    0.0000 C   0  0  0  0  0  0  0  0  0  0  0  0
   13.5049    0.6722    0.0000 C   0  0  0  0  0  0  0  0  0  0  0  0
   11.0340    1.4750    0.0000 C   0  0  0  0  0  0  0  0  0  0  0  0
    9.6434   -2.8047    0.0000 C   0  0  0  0  0  0  0  0  0  0  0  0
   10.6471   -3.9194    0.0000 O   0  0  0  0  0  0  0  0  0  0  0  0
    8.1762   -3.1166    0.0000 N   0  0  0  0  0  0  0  0  0  0  0  0
    7.7127   -4.5432    0.0000 C   0  0  0  0  0  0  0  0  0  0  0  0
    8.7164   -5.6579    0.0000 C   0  0  0  0  0  0  0  0  0  0  0  0
    8.2529   -7.0845    0.0000 C   0  0  0  0  0  0  0  0  0  0  0  0
    9.2566   -8.1992    0.0000 C   0  0  0  0  0  0  0  0  0  0  0  0
    6.7856   -7.3963    0.0000 C   0  0  0  0  0  0  0  0  0  0  0  0
    6.2455   -4.8550    0.0000 C   0  0  0  0  0  0  0  0  0  0  0  0
    5.7820   -6.2816    0.0000 O   0  0  0  0  0  0  0  0  0  0  0  0
    5.2418   -3.7403    0.0000 N   0  0  0  0  0  0  0  0  0  0  0  0
    5.5537   -2.2731    0.0000 C   0  0  0  0  0  0  0  0  0  0  0  0
    4.2546   -1.5231    0.0000 C   0  0  0  0  0  0  0  0  0  0  0  0
    3.1399   -2.5268    0.0000 C   0  0  0  0  0  0  0  0  0  0  0  0
    3.7500   -3.8971    0.0000 C   0  0  0  0  0  0  0  0  0  0  0  0
    3.0000   -5.1962    0.0000 C   0  0  0  0  0  0  0  0  0  0  0  0
    3.7500   -6.4952    0.0000 O   0  0  0  0  0  0  0  0  0  0  0  0
    1.5000   -5.1962    0.0000 N   0  0  0  0  0  0  0  0  0  0  0  0
    0.7500   -3.8971    0.0000 C   0  0  0  0  0  0  0  0  0  0  0  0
    1.5000   -2.5981    0.0000 C   0  0  0  0  0  0  0  0  0  0  0  0
    0.7500   -1.2990    0.0000 C   0  0  0  0  0  0  0  0  0  0  0  0
    1.5000    0.0000    0.0000 C   0  0  0  0  0  0  0  0  0  0  0  0
    0.7500    1.2990    0.0000 C   0  0  0  0  0  0  0  0  0  0  0  0
   -0.7500    1.2990    0.0000 C   0  0  0  0  0  0  0  0  0  0  0  0
   -1.5000    0.0000    0.0000 C   0  0  0  0  0  0  0  0  0  0  0  0
   -3.0000    0.0000    0.0000 O   0  0  0  0  0  0  0  0  0  0  0  0
   -3.7500   -1.2990    0.0000 C   0  0  0  0  0  0  0  0  0  0  0  0
   -0.7500   -1.2990    0.0000 C   0  0  0  0  0  0  0  0  0  0  0  0
   -1.5000    2.5981    0.0000 O   0  0  0  0  0  0  0  0  0  0  0  0
   -0.7500    3.8971    0.0000 C   0  0  0  0  0  0  0  0  0  0  0  0
    0.7500   -6.4952    0.0000 C   0  0  0  0  0  0  0  0  0  0  0  0
    1.5000   -7.7942    0.0000 C   0  0  0  0  0  0  0  0  0  0  0  0
    3.0000   -7.7942    0.0000 O   0  0  0  0  0  0  0  0  0  0  0  0
    0.7500   -9.0933    0.0000 N   0  0  0  0  0  0  0  0  0  0  0  0
    1.5000  -10.3923    0.0000 C   0  0  0  0  0  0  0  0  0  0  0  0
    0.7500  -11.6913    0.0000 C   0  0  0  0  0  0  0  0  0  0  0  0
    1.5000  -12.9904    0.0000 C   0  0  0  0  0  0  0  0  0  0  0  0
    2.2500  -14.2894    0.0000 C   0  0  0  0  0  0  0  0  0  0  0  0
    3.0000  -10.3923    0.0000 C   0  0  0  0  0  0  0  0  0  0  0  0
    3.7500   -9.0933    0.0000 O   0  0  0  0  0  0  0  0  0  0  0  0
    3.7500  -11.6913    0.0000 O   0  0  0  0  0  0  0  0  0  0  0  0
  2  1  1  1
  2  3  1  0
  3  4  1  0
  4  5  1  0
  4  6  1  0
  2  7  1  0
  7  8  2  0
  7  9  1  0
  9 10  1  0
 10 11  1  1
 11 12  1  0
 12 13  1  0
 12 14  1  0
 10 15  1  0
 15 16  2  0
 15 17  1  0
 17 18  1  0
 18 19  1  0
 19 20  1  0
 20 21  1  0
 21 22  1  6
 22 23  2  0
 22 24  1  0
 24 25  1  0
 25 26  1  0
 26 27  1  0
 27 28  2  0
 28 29  1  0
 29 30  2  0
 30 31  1  0
 31 32  1  0
 32 33  1  0
 31 34  2  0
 30 35  1  0
 35 36  1  0
 24 37  1  0
 37 38  1  0
 38 39  2  0
 38 40  1  0
 40 41  1  0
 41 42  1  6
 42 43  1  0
 43 44  3  0
 41 45  1  0
 45 46  2  0
 45 47  1  0
 34 27  1  0
 21 17  1  0
M  END
$$$$

     RDKit          2D

 47 48  0  0  0  0  0  0  0  0999 V2000
    9.1033   -0.2634    0.0000 N   0  0  0  0  0  0  0  0  0  0  0  0
   10.1070   -1.3781    0.0000 C   0  0  0  0  0  0  0  0  0  0  0  0
   11.5742   -1.0663    0.0000 C   0  0  0  0  0  0  0  0  0  0  0  0
   12.0377    0.3603    0.0000 C   0  0  0  0  0  0  0  0  0  0  0  0
   13.5049    0.6722    0.0000 C   0  0  0  0  0  0  0  0  0  0  0  0
   11.0340    1.4750    0.0000 C   0  0  0  0  0  0  0  0  0  0  0  0
    9.6434   -2.8047    0.0000 C   0  0  0  0  0  0  0  0  0  0  0  0
   10.6471   -3.9194    0.0000 O   0  0  0  0  0  0  0  0  0  0  0  0
    8.1762   -3.1166    0.0000 N   0  0  0  0  0  0  0  0  0  0  0  0
    7.7127   -4.5432    0.0000 C   0  0  0  0  0  0  0  0  0  0  0  0
    8.7164   -5.6579    0.0000 C   0  0  0  0  0  0  0  0  0  0  0  0
    8.2529   -7.0845    0.0000 C   0  0  0  0  0  0  0  0  0  0  0  0
    9.2566   -8.1992    0.0000 C   0  0  0  0  0  0  0  0  0  0  0  0
    6.7856   -7.3963    0.0000 C   0  0  0  0  0  0  0  0  0  0  0  0
    6.2455   -4.8550    0.0000 C   0  0  0  0  0  0  0  0  0  0  0  0
    5.7820   -6.2816    0.0000 O   0  0  0  0  0  0  0  0  0  0  0  0
    5.2418   -3.7403    0.0000 N   0  0  0  0  0  0  0  0  0  0  0  0
    5.5537   -2.2731    0.0000 C   0  0  0  0  0  0  0  0  0  0  0  0
    4.2546   -1.5231    0.0000 C   0  0  0  0  0  0  0  0  0  0  0  0
    3.1399   -2.5268    0.0000 C   0  0  0  0  0  0  0  0  0  0  0  0
    3.7500   -3.8971    0.0000 C   0  0  0  0  0  0  0  0  0  0  0  0
    3.0000   -5.1962    0.0000 C   0  0  0  0  0  0  0  0  0  0  0  0
    3.7500   -6.4952    0.0000 O   0  0  0  0  0  0  0  0  0  0  0  0
    1.5000   -5.1962    0.0000 N   0  0  0  0  0  0  0  0  0  0  0  0
    0.7500   -3.8971    0.0000 C   0  0  0  0  0  0  0  0  0  0  0  0
    1.5000   -2.5981    0.0000 C   0  0  0  0  0  0  0  0  0  0  0  0
    0.7500   -1.2990    0.0000 C   0  0  0  0  0  0  0  0  0  0  0  0
    1.5000    0.0000    0.0000 C   0  0  0  0  0  0  0  0  0  0  0  0
    0.7500    1.2990    0.0000 C   0  0  0  0  0  0  0  0  0  0  0  0
   -0.7500    1.2990    0.0000 C   0  0  0  0  0  0  0  0  0  0  0  0
   -1.5000    0.0000    0.0000 C   0  0  0  0  0  0  0  0  0  0  0  0
   -3.0000    0.0000    0.0000 O   0  0  0  0  0  0  0  0  0  0  0  0
   -3.7500   -1.2990    0.0000 C   0  0  0  0  0  0  0  0  0  0  0  0
   -0.7500   -1.2990    0.0000 C   0  0  0  0  0  0  0  0  0  0  0  0
   -1.5000    2.5981    0.0000 O   0  0  0  0  0  0  0  0  0  0  0  0
   -0.7500    3.8971    0.0000 C   0  0  0  0  0  0  0  0  0  0  0  0
    0.7500   -6.4952    0.0000 C   0  0  0  0  0  0  0  0  0  0  0  0
    1.5000   -7.7942    0.0000 C   0  0  0  0  0  0  0  0  0  0  0  0
    3.0000   -7.7942    0.0000 O   0  0  0  0  0  0  0  0  0  0  0  0
    0.7500   -9.0933    0.0000 N   0  0  0  0  0  0  0  0  0  0  0  0
    1.5000  -10.3923    0.0000 C   0  0  0  0  0  0  0  0  0  0  0  0
    0.7500  -11.6913    0.0000 C   0  0  0  0  0  0  0  0  0  0  0  0
    1.5000  -12.9904    0.0000 C   0  0  0  0  0  0  0  0  0  0  0  0
    2.2500  -14.2894    0.0000 C   0  0  0  0  0  0  0  0  0  0  0  0
    3.0000  -10.3923    0.0000 C   0  0  0  0  0  0  0  0  0  0  0  0
    3.7500   -9.0933    0.0000 O   0  0  0  0  0  0  0  0  0  0  0  0
    3.7500  -11.6913    0.0000 O   0  0  0  0  0  0  0  0  0  0  0  0
  2  1  1  6
  2  3  1  0
  3  4  1  0
  4  5  1  0
  4  6  1  0
  2  7  1  0
  7  8  2  0
  7  9  1  0
  9 10  1  0
 10 11  1  1
 11 12  1  0
 12 13  1  0
 12 14  1  0
 10 15  1  0
 15 16  2  0
 15 17  1  0
 17 18  1  0
 18 19  1  0
 19 20  1  0
 20 21  1  0
 21 22  1  6
 22 23  2  0
 22 24  1  0
 24 25  1  0
 25 26  1  0
 26 27  1  0
 27 28  2  0
 28 29  1  0
 29 30  2  0
 30 31  1  0
 31 32  1  0
 32 33  1  0
 31 34  2  0
 30 35  1  0
 35 36  1  0
 24 37  1  0
 37 38  1  0
 38 39  2  0
 38 40  1  0
 40 41  1  0
 41 42  1  6
 42 43  1  0
 43 44  3  0
 41 45  1  0
 45 46  2  0
 45 47  1  0
 34 27  1  0
 21 17  1  0
M  END
$$$$

     RDKit          2D

 48 49  0  0  0  0  0  0  0  0999 V2000
    9.1033  -10.1289    0.0000 N   0  0  0  0  0  0  0  0  0  0  0  0
    9.5668  -11.5555    0.0000 C   0  0  0  0  0  0  0  0  0  0  0  0
   10.1070   -9.0142    0.0000 C   0  0  0  0  0  0  0  0  0  0  0  0
   11.5742   -9.3260    0.0000 C   0  0  0  0  0  0  0  0  0  0  0  0
   12.0377  -10.7526    0.0000 C   0  0  0  0  0  0  0  0  0  0  0  0
   13.5049  -11.0645    0.0000 C   0  0  0  0  0  0  0  0  0  0  0  0
   11.0340  -11.8673    0.0000 C   0  0  0  0  0  0  0  0  0  0  0  0
    9.6434   -7.5876    0.0000 C   0  0  0  0  0  0  0  0  0  0  0  0
   10.6471   -6.4729    0.0000 O   0  0  0  0  0  0  0  0  0  0  0  0
    8.1762   -7.2757    0.0000 N   0  0  0  0  0  0  0  0  0  0  0  0
    7.7127   -5.8491    0.0000 C   0  0  0  0  0  0  0  0  0  0  0  0
    8.7164   -4.7344    0.0000 C   0  0  0  0  0  0  0  0  0  0  0  0
    8.2529   -3.3078    0.0000 C   0  0  0  0  0  0  0  0  0  0  0  0
    9.2566   -2.1931    0.0000 C   0  0  0  0  0  0  0  0  0  0  0  0
    6.7856   -2.9960    0.0000 C   0  0  0  0  0  0  0  0  0  0  0  0
    6.2455   -5.5373    0.0000 C   0  0  0  0  0  0  0  0  0  0  0  0
    5.7820   -4.1107    0.0000 O   0  0  0  0  0  0  0  0  0  0  0  0
    5.2418   -6.6520    0.0000 N   0  0  0  0  0  0  0  0  0  0  0  0
    5.5537   -8.1192    0.0000 C   0  0  0  0  0  0  0  0  0  0  0  0
    4.2546   -8.8692    0.0000 C   0  0  0  0  0  0  0  0  0  0  0  0
    3.1399   -7.8655    0.0000 C   0  0  0  0  0  0  0  0  0  0  0  0
    3.7500   -6.4952    0.0000 C   0  0  0  0  0  0  0  0  0  0  0  0
    3.0000   -5.1962    0.0000 C   0  0  0  0  0  0  0  0  0  0  0  0
    3.7500   -3.8971    0.0000 O   0  0  0  0  0  0  0  0  0  0  0  0
    1.5000   -5.1962    0.0000 N   0  0  0  0  0  0  0  0  0  0  0  0
    0.7500   -6.4952    0.0000 C   0  0  0  0  0  0  0  0  0  0  0  0
    1.5000   -7.7942    0.0000 C   0  0  0  0  0  0  0  0  0  0  0  0
    0.7500   -9.0933    0.0000 C   0  0  0  0  0  0  0  0  0  0  0  0
    1.5000  -10.3923    0.0000 C   0  0  0  0  0  0  0  0  0  0  0  0
    0.7500  -11.6913    0.0000 C   0  0  0  0  0  0  0  0  0  0  0  0
   -0.7500  -11.6913    0.0000 C   0  0  0  0  0  0  0  0  0  0  0  0
   -1.5000  -10.3923    0.0000 C   0  0  0  0  0  0  0  0  0  0  0  0
   -3.0000  -10.3923    0.0000 O   0  0  0  0  0  0  0  0  0  0  0  0
   -3.7500   -9.0933    0.0000 C   0  0  0  0  0  0  0  0  0  0  0  0
   -0.7500   -9.0933    0.0000 C   0  0  0  0  0  0  0  0  0  0  0  0
   -1.5000  -12.9904    0.0000 O   0  0  0  0  0  0  0  0  0  0  0  0
   -0.7500  -14.2894    0.0000 C   0  0  0  0  0  0  0  0  0  0  0  0
    0.7500   -3.8971    0.0000 C   0  0  0  0  0  0  0  0  0  0  0  0
    1.5000   -2.5981    0.0000 C   0  0  0  0  0  0  0  0  0  0  0  0
    3.0000   -2.5981    0.0000 O   0  0  0  0  0  0  0  0  0  0  0  0
    0.7500   -1.2990    0.0000 N   0  0  0  0  0  0  0  0  0  0  0  0
    1.5000   -0.0000    0.0000 C   0  0  0  0  0  0  0  0  0  0  0  0
    0.7500    1.2990    0.0000 C   0  0  0  0  0  0  0  0  0  0  0  0
    1.5000    2.5981    0.0000 C   0  0  0  0  0  0  0  0  0  0  0  0
    2.2500    3.8971    0.0000 C   0  0  0  0  0  0  0  0  0  0  0  0
    3.0000   -0.0000    0.0000 C   0  0  0  0  0  0  0  0  0  0  0  0
    3.7500   -1.2990    0.0000 O   0  0  0  0  0  0  0  0  0  0  0  0
    3.7500    1.2990    0.0000 O   0  0  0  0  0  0  0  0  0  0  0  0
  1  2  1  0
  1  3  1  0
  3  4  1  6
  4  5  1  0
  5  6  1  0
  5  7  1  0
  3  8  1  0
  8  9  2  0
  8 10  1  0
 10 11  1  0
 11 12  1  6
 12 13  1  0
 13 14  1  0
 13 15  1  0
 11 16  1  0
 16 17  2  0
 16 18  1  0
 18 19  1  0
 19 20  1  0
 20 21  1  0
 21 22  1  0
 22 23  1  1
 23 24  2  0
 23 25  1  0
 25 26  1  0
 26 27  1  0
 27 28  1  0
 28 29  2  0
 29 30  1  0
 30 31  2  0
 31 32  1  0
 32 33  1  0
 33 34  1  0
 32 35  2  0
 31 36  1  0
 36 37  1  0
 25 38  1  0
 38 39  1  0
 39 40  2  0
 39 41  1  0
 41 42  1  0
 42 43  1  1
 43 44  1  0
 44 45  3  0
 42 46  1  0
 46 47  2  0
 46 48  1  0
 35 28  1  0
 22 18  1  0
M  END
$$$$

     RDKit          2D

 48 49  0  0  0  0  0  0  0  0999 V2000
    9.1033  -10.1289    0.0000 N   0  0  0  0  0  0  0  0  0  0  0  0
    9.5668  -11.5555    0.0000 C   0  0  0  0  0  0  0  0  0  0  0  0
   10.1070   -9.0142    0.0000 C   0  0  0  0  0  0  0  0  0  0  0  0
   11.5742   -9.3260    0.0000 C   0  0  0  0  0  0  0  0  0  0  0  0
   12.0377  -10.7526    0.0000 C   0  0  0  0  0  0  0  0  0  0  0  0
   13.5049  -11.0645    0.0000 C   0  0  0  0  0  0  0  0  0  0  0  0
   11.0340  -11.8673    0.0000 C   0  0  0  0  0  0  0  0  0  0  0  0
    9.6434   -7.5876    0.0000 C   0  0  0  0  0  0  0  0  0  0  0  0
   10.6471   -6.4729    0.0000 O   0  0  0  0  0  0  0  0  0  0  0  0
    8.1762   -7.2757    0.0000 N   0  0  0  0  0  0  0  0  0  0  0  0
    7.7127   -5.8491    0.0000 C   0  0  0  0  0  0  0  0  0  0  0  0
    8.7164   -4.7344    0.0000 C   0  0  0  0  0  0  0  0  0  0  0  0
    8.2529   -3.3078    0.0000 C   0  0  0  0  0  0  0  0  0  0  0  0
    9.2566   -2.1931    0.0000 C   0  0  0  0  0  0  0  0  0  0  0  0
    6.7856   -2.9960    0.0000 C   0  0  0  0  0  0  0  0  0  0  0  0
    6.2455   -5.5373    0.0000 C   0  0  0  0  0  0  0  0  0  0  0  0
    5.7820   -4.1107    0.0000 O   0  0  0  0  0  0  0  0  0  0  0  0
    5.2418   -6.6520    0.0000 N   0  0  0  0  0  0  0  0  0  0  0  0
    5.5537   -8.1192    0.0000 C   0  0  0  0  0  0  0  0  0  0  0  0
    4.2546   -8.8692    0.0000 C   0  0  0  0  0  0  0  0  0  0  0  0
    3.1399   -7.8655    0.0000 C   0  0  0  0  0  0  0  0  0  0  0  0
    3.7500   -6.4952    0.0000 C   0  0  0  0  0  0  0  0  0  0  0  0
    3.0000   -5.1962    0.0000 C   0  0  0  0  0  0  0  0  0  0  0  0
    3.7500   -3.8971    0.0000 O   0  0  0  0  0  0  0  0  0  0  0  0
    1.5000   -5.1962    0.0000 N   0  0  0  0  0  0  0  0  0  0  0  0
    0.7500   -6.4952    0.0000 C   0  0  0  0  0  0  0  0  0  0  0  0
    1.5000   -7.7942    0.0000 C   0  0  0  0  0  0  0  0  0  0  0  0
    0.7500   -9.0933    0.0000 C   0  0  0  0  0  0  0  0  0  0  0  0
    1.5000  -10.3923    0.0000 C   0  0  0  0  0  0  0  0  0  0  0  0
    0.7500  -11.6913    0.0000 C   0  0  0  0  0  0  0  0  0  0  0  0
   -0.7500  -11.6913    0.0000 C   0  0  0  0  0  0  0  0  0  0  0  0
   -1.5000  -10.3923    0.0000 C   0  0  0  0  0  0  0  0  0  0  0  0
   -3.0000  -10.3923    0.0000 O   0  0  0  0  0  0  0  0  0  0  0  0
   -3.7500   -9.0933    0.0000 C   0  0  0  0  0  0  0  0  0  0  0  0
   -0.7500   -9.0933    0.0000 C   0  0  0  0  0  0  0  0  0  0  0  0
   -1.5000  -12.9904    0.0000 O   0  0  0  0  0  0  0  0  0  0  0  0
   -0.7500  -14.2894    0.0000 C   0  0  0  0  0  0  0  0  0  0  0  0
    0.7500   -3.8971    0.0000 C   0  0  0  0  0  0  0  0  0  0  0  0
    1.5000   -2.5981    0.0000 C   0  0  0  0  0  0  0  0  0  0  0  0
    3.0000   -2.5981    0.0000 O   0  0  0  0  0  0  0  0  0  0  0  0
    0.7500   -1.2990    0.0000 N   0  0  0  0  0  0  0  0  0  0  0  0
    1.5000   -0.0000    0.0000 C   0  0  0  0  0  0  0  0  0  0  0  0
    0.7500    1.2990    0.0000 C   0  0  0  0  0  0  0  0  0  0  0  0
    1.5000    2.5981    0.0000 C   0  0  0  0  0  0  0  0  0  0  0  0
    2.2500    3.8971    0.0000 C   0  0  0  0  0  0  0  0  0  0  0  0
    3.0000   -0.0000    0.0000 C   0  0  0  0  0  0  0  0  0  0  0  0
    3.7500   -1.2990    0.0000 O   0  0  0  0  0  0  0  0  0  0  0  0
    3.7500    1.2990    0.0000 O   0  0  0  0  0  0  0  0  0  0  0  0
  1  2  1  0
  1  3  1  0
  3  4  1  1
  4  5  1  0
  5  6  1  0
  5  7  1  0
  3  8  1  0
  8  9  2  0
  8 10  1  0
 10 11  1  0
 11 12  1  6
 12 13  1  0
 13 14  1  0
 13 15  1  0
 11 16  1  0
 16 17  2  0
 16 18  1  0
 18 19  1  0
 19 20  1  0
 20 21  1  0
 21 22  1  0
 22 23  1  1
 23 24  2  0
 23 25  1  0
 25 26  1  0
 26 27  1  0
 27 28  1  0
 28 29  2  0
 29 30  1  0
 30 31  2  0
 31 32  1  0
 32 33  1  0
 33 34  1  0
 32 35  2  0
 31 36  1  0
 36 37  1  0
 25 38  1  0
 38 39  1  0
 39 40  2  0
 39 41  1  0
 41 42  1  0
 42 43  1  1
 43 44  1  0
 44 45  3  0
 42 46  1  0
 46 47  2  0
 46 48  1  0
 35 28  1  0
 22 18  1  0
M  END
$$$$

     RDKit          2D

 47 48  0  0  0  0  0  0  0  0999 V2000
    9.1033   -0.2634    0.0000 N   0  0  0  0  0  0  0  0  0  0  0  0
   10.1070   -1.3781    0.0000 C   0  0  0  0  0  0  0  0  0  0  0  0
   11.5742   -1.0663    0.0000 C   0  0  0  0  0  0  0  0  0  0  0  0
   12.0377    0.3603    0.0000 C   0  0  0  0  0  0  0  0  0  0  0  0
   13.5049    0.6722    0.0000 C   0  0  0  0  0  0  0  0  0  0  0  0
   11.0340    1.4750    0.0000 C   0  0  0  0  0  0  0  0  0  0  0  0
    9.6434   -2.8047    0.0000 C   0  0  0  0  0  0  0  0  0  0  0  0
   10.6471   -3.9194    0.0000 O   0  0  0  0  0  0  0  0  0  0  0  0
    8.1762   -3.1166    0.0000 N   0  0  0  0  0  0  0  0  0  0  0  0
    7.7127   -4.5432    0.0000 C   0  0  0  0  0  0  0  0  0  0  0  0
    8.7164   -5.6579    0.0000 C   0  0  0  0  0  0  0  0  0  0  0  0
    8.2529   -7.0845    0.0000 C   0  0  0  0  0  0  0  0  0  0  0  0
    9.2566   -8.1992    0.0000 C   0  0  0  0  0  0  0  0  0  0  0  0
    6.7856   -7.3963    0.0000 C   0  0  0  0  0  0  0  0  0  0  0  0
    6.2455   -4.8550    0.0000 C   0  0  0  0  0  0  0  0  0  0  0  0
    5.7820   -6.2816    0.0000 O   0  0  0  0  0  0  0  0  0  0  0  0
    5.2418   -3.7403    0.0000 N   0  0  0  0  0  0  0  0  0  0  0  0
    5.5537   -2.2731    0.0000 C   0  0  0  0  0  0  0  0  0  0  0  0
    4.2546   -1.5231    0.0000 C   0  0  0  0  0  0  0  0  0  0  0  0
    3.1399   -2.5268    0.0000 C   0  0  0  0  0  0  0  0  0  0  0  0
    3.7500   -3.8971    0.0000 C   0  0  0  0  0  0  0  0  0  0  0  0
    3.0000   -5.1962    0.0000 C   0  0  0  0  0  0  0  0  0  0  0  0
    3.7500   -6.4952    0.0000 O   0  0  0  0  0  0  0  0  0  0  0  0
    1.5000   -5.1962    0.0000 N   0  0  0  0  0  0  0  0  0  0  0  0
    0.7500   -3.8971    0.0000 C   0  0  0  0  0  0  0  0  0  0  0  0
    1.5000   -2.5981    0.0000 C   0  0  0  0  0  0  0  0  0  0  0  0
    0.7500   -1.2990    0.0000 C   0  0  0  0  0  0  0  0  0  0  0  0
    1.5000    0.0000    0.0000 C   0  0  0  0  0  0  0  0  0  0  0  0
    0.7500    1.2990    0.0000 C   0  0  0  0  0  0  0  0  0  0  0  0
   -0.7500    1.2990    0.0000 C   0  0  0  0  0  0  0  0  0  0  0  0
   -1.5000    0.0000    0.0000 C   0  0  0  0  0  0  0  0  0  0  0  0
   -3.0000    0.0000    0.0000 O   0  0  0  0  0  0  0  0  0  0  0  0
   -3.7500   -1.2990    0.0000 C   0  0  0  0  0  0  0  0  0  0  0  0
   -0.7500   -1.2990    0.0000 C   0  0  0  0  0  0  0  0  0  0  0  0
   -1.5000    2.5981    0.0000 O   0  0  0  0  0  0  0  0  0  0  0  0
   -0.7500    3.8971    0.0000 C   0  0  0  0  0  0  0  0  0  0  0  0
    0.7500   -6.4952    0.0000 C   0  0  0  0  0  0  0  0  0  0  0  0
    1.5000   -7.7942    0.0000 C   0  0  0  0  0  0  0  0  0  0  0  0
    3.0000   -7.7942    0.0000 O   0  0  0  0  0  0  0  0  0  0  0  0
    0.7500   -9.0933    0.0000 N   0  0  0  0  0  0  0  0  0  0  0  0
    1.5000  -10.3923    0.0000 C   0  0  0  0  0  0  0  0  0  0  0  0
    0.7500  -11.6913    0.0000 C   0  0  0  0  0  0  0  0  0  0  0  0
    1.5000  -12.9904    0.0000 C   0  0  0  0  0  0  0  0  0  0  0  0
    2.2500  -14.2894    0.0000 C   0  0  0  0  0  0  0  0  0  0  0  0
    3.0000  -10.3923    0.0000 C   0  0  0  0  0  0  0  0  0  0  0  0
    3.7500   -9.0933    0.0000 O   0  0  0  0  0  0  0  0  0  0  0  0
    3.7500  -11.6913    0.0000 O   0  0  0  0  0  0  0  0  0  0  0  0
  2  1  1  1
  2  3  1  0
  3  4  1  0
  4  5  1  0
  4  6  1  0
  2  7  1  0
  7  8  2  0
  7  9  1  0
  9 10  1  0
 10 11  1  6
 11 12  1  0
 12 13  1  0
 12 14  1  0
 10 15  1  0
 15 16  2  0
 15 17  1  0
 17 18  1  0
 18 19  1  0
 19 20  1  0
 20 21  1  0
 21 22  1  6
 22 23  2  0
 22 24  1  0
 24 25  1  0
 25 26  1  0
 26 27  1  0
 27 28  2  0
 28 29  1  0
 29 30  2  0
 30 31  1  0
 31 32  1  0
 32 33  1  0
 31 34  2  0
 30 35  1  0
 35 36  1  0
 24 37  1  0
 37 38  1  0
 38 39  2  0
 38 40  1  0
 40 41  1  0
 41 42  1  6
 42 43  1  0
 43 44  3  0
 41 45  1  0
 45 46  2  0
 45 47  1  0
 34 27  1  0
 21 17  1  0
M  END
$$$$

     RDKit          2D

 47 48  0  0  0  0  0  0  0  0999 V2000
    9.1033   -0.2634    0.0000 N   0  0  0  0  0  0  0  0  0  0  0  0
   10.1070   -1.3781    0.0000 C   0  0  0  0  0  0  0  0  0  0  0  0
   11.5742   -1.0663    0.0000 C   0  0  0  0  0  0  0  0  0  0  0  0
   12.0377    0.3603    0.0000 C   0  0  0  0  0  0  0  0  0  0  0  0
   13.5049    0.6722    0.0000 C   0  0  0  0  0  0  0  0  0  0  0  0
   11.0340    1.4750    0.0000 C   0  0  0  0  0  0  0  0  0  0  0  0
    9.6434   -2.8047    0.0000 C   0  0  0  0  0  0  0  0  0  0  0  0
   10.6471   -3.9194    0.0000 O   0  0  0  0  0  0  0  0  0  0  0  0
    8.1762   -3.1166    0.0000 N   0  0  0  0  0  0  0  0  0  0  0  0
    7.7127   -4.5432    0.0000 C   0  0  0  0  0  0  0  0  0  0  0  0
    8.7164   -5.6579    0.0000 C   0  0  0  0  0  0  0  0  0  0  0  0
    8.2529   -7.0845    0.0000 C   0  0  0  0  0  0  0  0  0  0  0  0
    9.2566   -8.1992    0.0000 C   0  0  0  0  0  0  0  0  0  0  0  0
    6.7856   -7.3963    0.0000 C   0  0  0  0  0  0  0  0  0  0  0  0
    6.2455   -4.8550    0.0000 C   0  0  0  0  0  0  0  0  0  0  0  0
    5.7820   -6.2816    0.0000 O   0  0  0  0  0  0  0  0  0  0  0  0
    5.2418   -3.7403    0.0000 N   0  0  0  0  0  0  0  0  0  0  0  0
    5.5537   -2.2731    0.0000 C   0  0  0  0  0  0  0  0  0  0  0  0
    4.2546   -1.5231    0.0000 C   0  0  0  0  0  0  0  0  0  0  0  0
    3.1399   -2.5268    0.0000 C   0  0  0  0  0  0  0  0  0  0  0  0
    3.7500   -3.8971    0.0000 C   0  0  0  0  0  0  0  0  0  0  0  0
    3.0000   -5.1962    0.0000 C   0  0  0  0  0  0  0  0  0  0  0  0
    3.7500   -6.4952    0.0000 O   0  0  0  0  0  0  0  0  0  0  0  0
    1.5000   -5.1962    0.0000 N   0  0  0  0  0  0  0  0  0  0  0  0
    0.7500   -3.8971    0.0000 C   0  0  0  0  0  0  0  0  0  0  0  0
    1.5000   -2.5981    0.0000 C   0  0  0  0  0  0  0  0  0  0  0  0
    0.7500   -1.2990    0.0000 C   0  0  0  0  0  0  0  0  0  0  0  0
    1.5000    0.0000    0.0000 C   0  0  0  0  0  0  0  0  0  0  0  0
    0.7500    1.2990    0.0000 C   0  0  0  0  0  0  0  0  0  0  0  0
   -0.7500    1.2990    0.0000 C   0  0  0  0  0  0  0  0  0  0  0  0
   -1.5000    0.0000    0.0000 C   0  0  0  0  0  0  0  0  0  0  0  0
   -3.0000    0.0000    0.0000 O   0  0  0  0  0  0  0  0  0  0  0  0
   -3.7500   -1.2990    0.0000 C   0  0  0  0  0  0  0  0  0  0  0  0
   -0.7500   -1.2990    0.0000 C   0  0  0  0  0  0  0  0  0  0  0  0
   -1.5000    2.5981    0.0000 O   0  0  0  0  0  0  0  0  0  0  0  0
   -0.7500    3.8971    0.0000 C   0  0  0  0  0  0  0  0  0  0  0  0
    0.7500   -6.4952    0.0000 C   0  0  0  0  0  0  0  0  0  0  0  0
    1.5000   -7.7942    0.0000 C   0  0  0  0  0  0  0  0  0  0  0  0
    3.0000   -7.7942    0.0000 O   0  0  0  0  0  0  0  0  0  0  0  0
    0.7500   -9.0933    0.0000 N   0  0  0  0  0  0  0  0  0  0  0  0
    1.5000  -10.3923    0.0000 C   0  0  0  0  0  0  0  0  0  0  0  0
    0.7500  -11.6913    0.0000 C   0  0  0  0  0  0  0  0  0  0  0  0
    1.5000  -12.9904    0.0000 C   0  0  0  0  0  0  0  0  0  0  0  0
    2.2500  -14.2894    0.0000 C   0  0  0  0  0  0  0  0  0  0  0  0
    3.0000  -10.3923    0.0000 C   0  0  0  0  0  0  0  0  0  0  0  0
    3.7500   -9.0933    0.0000 O   0  0  0  0  0  0  0  0  0  0  0  0
    3.7500  -11.6913    0.0000 O   0  0  0  0  0  0  0  0  0  0  0  0
  2  1  1  6
  2  3  1  0
  3  4  1  0
  4  5  1  0
  4  6  1  0
  2  7  1  0
  7  8  2  0
  7  9  1  0
  9 10  1  0
 10 11  1  6
 11 12  1  0
 12 13  1  0
 12 14  1  0
 10 15  1  0
 15 16  2  0
 15 17  1  0
 17 18  1  0
 18 19  1  0
 19 20  1  0
 20 21  1  0
 21 22  1  6
 22 23  2  0
 22 24  1  0
 24 25  1  0
 25 26  1  0
 26 27  1  0
 27 28  2  0
 28 29  1  0
 29 30  2  0
 30 31  1  0
 31 32  1  0
 32 33  1  0
 31 34  2  0
 30 35  1  0
 35 36  1  0
 24 37  1  0
 37 38  1  0
 38 39  2  0
 38 40  1  0
 40 41  1  0
 41 42  1  6
 42 43  1  0
 43 44  3  0
 41 45  1  0
 45 46  2  0
 45 47  1  0
 34 27  1  0
 21 17  1  0
M  END
$$$$

     RDKit          2D

 48 49  0  0  0  0  0  0  0  0999 V2000
    9.1033  -10.1289    0.0000 N   0  0  0  0  0  0  0  0  0  0  0  0
    9.5668  -11.5555    0.0000 C   0  0  0  0  0  0  0  0  0  0  0  0
   10.1070   -9.0142    0.0000 C   0  0  0  0  0  0  0  0  0  0  0  0
   11.5742   -9.3260    0.0000 C   0  0  0  0  0  0  0  0  0  0  0  0
   12.0377  -10.7526    0.0000 C   0  0  0  0  0  0  0  0  0  0  0  0
   13.5049  -11.0645    0.0000 C   0  0  0  0  0  0  0  0  0  0  0  0
   11.0340  -11.8673    0.0000 C   0  0  0  0  0  0  0  0  0  0  0  0
    9.6434   -7.5876    0.0000 C   0  0  0  0  0  0  0  0  0  0  0  0
   10.6471   -6.4729    0.0000 O   0  0  0  0  0  0  0  0  0  0  0  0
    8.1762   -7.2757    0.0000 N   0  0  0  0  0  0  0  0  0  0  0  0
    7.7127   -5.8491    0.0000 C   0  0  0  0  0  0  0  0  0  0  0  0
    8.7164   -4.7344    0.0000 C   0  0  0  0  0  0  0  0  0  0  0  0
    8.2529   -3.3078    0.0000 C   0  0  0  0  0  0  0  0  0  0  0  0
    9.2566   -2.1931    0.0000 C   0  0  0  0  0  0  0  0  0  0  0  0
    6.7856   -2.9960    0.0000 C   0  0  0  0  0  0  0  0  0  0  0  0
    6.2455   -5.5373    0.0000 C   0  0  0  0  0  0  0  0  0  0  0  0
    5.7820   -4.1107    0.0000 O   0  0  0  0  0  0  0  0  0  0  0  0
    5.2418   -6.6520    0.0000 N   0  0  0  0  0  0  0  0  0  0  0  0
    5.5537   -8.1192    0.0000 C   0  0  0  0  0  0  0  0  0  0  0  0
    4.2546   -8.8692    0.0000 C   0  0  0  0  0  0  0  0  0  0  0  0
    3.1399   -7.8655    0.0000 C   0  0  0  0  0  0  0  0  0  0  0  0
    3.7500   -6.4952    0.0000 C   0  0  0  0  0  0  0  0  0  0  0  0
    3.0000   -5.1962    0.0000 C   0  0  0  0  0  0  0  0  0  0  0  0
    3.7500   -3.8971    0.0000 O   0  0  0  0  0  0  0  0  0  0  0  0
    1.5000   -5.1962    0.0000 N   0  0  0  0  0  0  0  0  0  0  0  0
    0.7500   -6.4952    0.0000 C   0  0  0  0  0  0  0  0  0  0  0  0
    1.5000   -7.7942    0.0000 C   0  0  0  0  0  0  0  0  0  0  0  0
    0.7500   -9.0933    0.0000 C   0  0  0  0  0  0  0  0  0  0  0  0
    1.5000  -10.3923    0.0000 C   0  0  0  0  0  0  0  0  0  0  0  0
    0.7500  -11.6913    0.0000 C   0  0  0  0  0  0  0  0  0  0  0  0
   -0.7500  -11.6913    0.0000 C   0  0  0  0  0  0  0  0  0  0  0  0
   -1.5000  -10.3923    0.0000 C   0  0  0  0  0  0  0  0  0  0  0  0
   -3.0000  -10.3923    0.0000 O   0  0  0  0  0  0  0  0  0  0  0  0
   -3.7500   -9.0933    0.0000 C   0  0  0  0  0  0  0  0  0  0  0  0
   -0.7500   -9.0933    0.0000 C   0  0  0  0  0  0  0  0  0  0  0  0
   -1.5000  -12.9904    0.0000 O   0  0  0  0  0  0  0  0  0  0  0  0
   -0.7500  -14.2894    0.0000 C   0  0  0  0  0  0  0  0  0  0  0  0
    0.7500   -3.8971    0.0000 C   0  0  0  0  0  0  0  0  0  0  0  0
    1.5000   -2.5981    0.0000 C   0  0  0  0  0  0  0  0  0  0  0  0
    3.0000   -2.5981    0.0000 O   0  0  0  0  0  0  0  0  0  0  0  0
    0.7500   -1.2990    0.0000 N   0  0  0  0  0  0  0  0  0  0  0  0
    1.5000   -0.0000    0.0000 C   0  0  0  0  0  0  0  0  0  0  0  0
    0.7500    1.2990    0.0000 C   0  0  0  0  0  0  0  0  0  0  0  0
    1.5000    2.5981    0.0000 C   0  0  0  0  0  0  0  0  0  0  0  0
    2.2500    3.8971    0.0000 C   0  0  0  0  0  0  0  0  0  0  0  0
    3.0000   -0.0000    0.0000 C   0  0  0  0  0  0  0  0  0  0  0  0
    3.7500   -1.2990    0.0000 O   0  0  0  0  0  0  0  0  0  0  0  0
    3.7500    1.2990    0.0000 O   0  0  0  0  0  0  0  0  0  0  0  0
  1  2  1  0
  1  3  1  0
  3  4  1  6
  4  5  1  0
  5  6  1  0
  5  7  1  0
  3  8  1  0
  8  9  2  0
  8 10  1  0
 10 11  1  0
 11 12  1  1
 12 13  1  0
 13 14  1  0
 13 15  1  0
 11 16  1  0
 16 17  2  0
 16 18  1  0
 18 19  1  0
 19 20  1  0
 20 21  1  0
 21 22  1  0
 22 23  1  1
 23 24  2  0
 23 25  1  0
 25 26  1  0
 26 27  1  0
 27 28  1  0
 28 29  2  0
 29 30  1  0
 30 31  2  0
 31 32  1  0
 32 33  1  0
 33 34  1  0
 32 35  2  0
 31 36  1  0
 36 37  1  0
 25 38  1  0
 38 39  1  0
 39 40  2  0
 39 41  1  0
 41 42  1  0
 42 43  1  1
 43 44  1  0
 44 45  3  0
 42 46  1  0
 46 47  2  0
 46 48  1  0
 35 28  1  0
 22 18  1  0
M  END
$$$$

     RDKit          2D

 48 49  0  0  0  0  0  0  0  0999 V2000
    9.1033  -10.1289    0.0000 N   0  0  0  0  0  0  0  0  0  0  0  0
    9.5668  -11.5555    0.0000 C   0  0  0  0  0  0  0  0  0  0  0  0
   10.1070   -9.0142    0.0000 C   0  0  0  0  0  0  0  0  0  0  0  0
   11.5742   -9.3260    0.0000 C   0  0  0  0  0  0  0  0  0  0  0  0
   12.0377  -10.7526    0.0000 C   0  0  0  0  0  0  0  0  0  0  0  0
   13.5049  -11.0645    0.0000 C   0  0  0  0  0  0  0  0  0  0  0  0
   11.0340  -11.8673    0.0000 C   0  0  0  0  0  0  0  0  0  0  0  0
    9.6434   -7.5876    0.0000 C   0  0  0  0  0  0  0  0  0  0  0  0
   10.6471   -6.4729    0.0000 O   0  0  0  0  0  0  0  0  0  0  0  0
    8.1762   -7.2757    0.0000 N   0  0  0  0  0  0  0  0  0  0  0  0
    7.7127   -5.8491    0.0000 C   0  0  0  0  0  0  0  0  0  0  0  0
    8.7164   -4.7344    0.0000 C   0  0  0  0  0  0  0  0  0  0  0  0
    8.2529   -3.3078    0.0000 C   0  0  0  0  0  0  0  0  0  0  0  0
    9.2566   -2.1931    0.0000 C   0  0  0  0  0  0  0  0  0  0  0  0
    6.7856   -2.9960    0.0000 C   0  0  0  0  0  0  0  0  0  0  0  0
    6.2455   -5.5373    0.0000 C   0  0  0  0  0  0  0  0  0  0  0  0
    5.7820   -4.1107    0.0000 O   0  0  0  0  0  0  0  0  0  0  0  0
    5.2418   -6.6520    0.0000 N   0  0  0  0  0  0  0  0  0  0  0  0
    5.5537   -8.1192    0.0000 C   0  0  0  0  0  0  0  0  0  0  0  0
    4.2546   -8.8692    0.0000 C   0  0  0  0  0  0  0  0  0  0  0  0
    3.1399   -7.8655    0.0000 C   0  0  0  0  0  0  0  0  0  0  0  0
    3.7500   -6.4952    0.0000 C   0  0  0  0  0  0  0  0  0  0  0  0
    3.0000   -5.1962    0.0000 C   0  0  0  0  0  0  0  0  0  0  0  0
    3.7500   -3.8971    0.0000 O   0  0  0  0  0  0  0  0  0  0  0  0
    1.5000   -5.1962    0.0000 N   0  0  0  0  0  0  0  0  0  0  0  0
    0.7500   -6.4952    0.0000 C   0  0  0  0  0  0  0  0  0  0  0  0
    1.5000   -7.7942    0.0000 C   0  0  0  0  0  0  0  0  0  0  0  0
    0.7500   -9.0933    0.0000 C   0  0  0  0  0  0  0  0  0  0  0  0
    1.5000  -10.3923    0.0000 C   0  0  0  0  0  0  0  0  0  0  0  0
    0.7500  -11.6913    0.0000 C   0  0  0  0  0  0  0  0  0  0  0  0
   -0.7500  -11.6913    0.0000 C   0  0  0  0  0  0  0  0  0  0  0  0
   -1.5000  -10.3923    0.0000 C   0  0  0  0  0  0  0  0  0  0  0  0
   -3.0000  -10.3923    0.0000 O   0  0  0  0  0  0  0  0  0  0  0  0
   -3.7500   -9.0933    0.0000 C   0  0  0  0  0  0  0  0  0  0  0  0
   -0.7500   -9.0933    0.0000 C   0  0  0  0  0  0  0  0  0  0  0  0
   -1.5000  -12.9904    0.0000 O   0  0  0  0  0  0  0  0  0  0  0  0
   -0.7500  -14.2894    0.0000 C   0  0  0  0  0  0  0  0  0  0  0  0
    0.7500   -3.8971    0.0000 C   0  0  0  0  0  0  0  0  0  0  0  0
    1.5000   -2.5981    0.0000 C   0  0  0  0  0  0  0  0  0  0  0  0
    3.0000   -2.5981    0.0000 O   0  0  0  0  0  0  0  0  0  0  0  0
    0.7500   -1.2990    0.0000 N   0  0  0  0  0  0  0  0  0  0  0  0
    1.5000   -0.0000    0.0000 C   0  0  0  0  0  0  0  0  0  0  0  0
    0.7500    1.2990    0.0000 C   0  0  0  0  0  0  0  0  0  0  0  0
    1.5000    2.5981    0.0000 C   0  0  0  0  0  0  0  0  0  0  0  0
    2.2500    3.8971    0.0000 C   0  0  0  0  0  0  0  0  0  0  0  0
    3.0000   -0.0000    0.0000 C   0  0  0  0  0  0  0  0  0  0  0  0
    3.7500   -1.2990    0.0000 O   0  0  0  0  0  0  0  0  0  0  0  0
    3.7500    1.2990    0.0000 O   0  0  0  0  0  0  0  0  0  0  0  0
  1  2  1  0
  1  3  1  0
  3  4  1  1
  4  5  1  0
  5  6  1  0
  5  7  1  0
  3  8  1  0
  8  9  2  0
  8 10  1  0
 10 11  1  0
 11 12  1  1
 12 13  1  0
 13 14  1  0
 13 15  1  0
 11 16  1  0
 16 17  2  0
 16 18  1  0
 18 19  1  0
 19 20  1  0
 20 21  1  0
 21 22  1  0
 22 23  1  1
 23 24  2  0
 23 25  1  0
 25 26  1  0
 26 27  1  0
 27 28  1  0
 28 29  2  0
 29 30  1  0
 30 31  2  0
 31 32  1  0
 32 33  1  0
 33 34  1  0
 32 35  2  0
 31 36  1  0
 36 37  1  0
 25 38  1  0
 38 39  1  0
 39 40  2  0
 39 41  1  0
 41 42  1  0
 42 43  1  1
 43 44  1  0
 44 45  3  0
 42 46  1  0
 46 47  2  0
 46 48  1  0
 35 28  1  0
 22 18  1  0
M  END
$$$$

     RDKit          2D

 48 49  0  0  0  0  0  0  0  0999 V2000
   10.7238   -2.5050    0.0000 N   0  0  0  0  0  0  0  0  0  0  0  0
    9.2566   -2.1931    0.0000 C   0  0  0  0  0  0  0  0  0  0  0  0
    8.7930   -0.7665    0.0000 C   0  0  0  0  0  0  0  0  0  0  0  0
    9.7967    0.3482    0.0000 C   0  0  0  0  0  0  0  0  0  0  0  0
    9.3332    1.7748    0.0000 C   0  0  0  0  0  0  0  0  0  0  0  0
   11.2640    0.0363    0.0000 C   0  0  0  0  0  0  0  0  0  0  0  0
    8.2529   -3.3078    0.0000 C   0  0  0  0  0  0  0  0  0  0  0  0
    6.7856   -2.9960    0.0000 O   0  0  0  0  0  0  0  0  0  0  0  0
    8.7164   -4.7344    0.0000 N   0  0  0  0  0  0  0  0  0  0  0  0
   10.1836   -5.0463    0.0000 C   0  0  0  0  0  0  0  0  0  0  0  0
    7.7127   -5.8491    0.0000 C   0  0  0  0  0  0  0  0  0  0  0  0
    8.1762   -7.2757    0.0000 C   0  0  0  0  0  0  0  0  0  0  0  0
    9.6434   -7.5876    0.0000 C   0  0  0  0  0  0  0  0  0  0  0  0
   10.1070   -9.0142    0.0000 C   0  0  0  0  0  0  0  0  0  0  0  0
   10.6471   -6.4729    0.0000 C   0  0  0  0  0  0  0  0  0  0  0  0
    6.2455   -5.5373    0.0000 C   0  0  0  0  0  0  0  0  0  0  0  0
    5.7820   -4.1107    0.0000 O   0  0  0  0  0  0  0  0  0  0  0  0
    5.2418   -6.6520    0.0000 N   0  0  0  0  0  0  0  0  0  0  0  0
    5.5537   -8.1192    0.0000 C   0  0  0  0  0  0  0  0  0  0  0  0
    4.2546   -8.8692    0.0000 C   0  0  0  0  0  0  0  0  0  0  0  0
    3.1399   -7.8655    0.0000 C   0  0  0  0  0  0  0  0  0  0  0  0
    3.7500   -6.4952    0.0000 C   0  0  0  0  0  0  0  0  0  0  0  0
    3.0000   -5.1962    0.0000 C   0  0  0  0  0  0  0  0  0  0  0  0
    3.7500   -3.8971    0.0000 O   0  0  0  0  0  0  0  0  0  0  0  0
    1.5000   -5.1962    0.0000 N   0  0  0  0  0  0  0  0  0  0  0  0
    0.7500   -3.8971    0.0000 C   0  0  0  0  0  0  0  0  0  0  0  0
    1.5000   -2.5981    0.0000 C   0  0  0  0  0  0  0  0  0  0  0  0
    0.7500   -1.2990    0.0000 C   0  0  0  0  0  0  0  0  0  0  0  0
    1.5000    0.0000    0.0000 C   0  0  0  0  0  0  0  0  0  0  0  0
    0.7500    1.2990    0.0000 C   0  0  0  0  0  0  0  0  0  0  0  0
   -0.7500    1.2990    0.0000 C   0  0  0  0  0  0  0  0  0  0  0  0
   -1.5000    0.0000    0.0000 C   0  0  0  0  0  0  0  0  0  0  0  0
   -3.0000    0.0000    0.0000 O   0  0  0  0  0  0  0  0  0  0  0  0
   -3.7500   -1.2990    0.0000 C   0  0  0  0  0  0  0  0  0  0  0  0
   -0.7500   -1.2990    0.0000 C   0  0  0  0  0  0  0  0  0  0  0  0
   -1.5000    2.5981    0.0000 O   0  0  0  0  0  0  0  0  0  0  0  0
   -0.7500    3.8971    0.0000 C   0  0  0  0  0  0  0  0  0  0  0  0
    0.7500   -6.4952    0.0000 C   0  0  0  0  0  0  0  0  0  0  0  0
   -0.7500   -6.4952    0.0000 C   0  0  0  0  0  0  0  0  0  0  0  0
   -1.5000   -5.1962    0.0000 O   0  0  0  0  0  0  0  0  0  0  0  0
   -1.5000   -7.7942    0.0000 N   0  0  0  0  0  0  0  0  0  0  0  0
   -3.0000   -7.7942    0.0000 C   0  0  0  0  0  0  0  0  0  0  0  0
   -3.7500   -9.0933    0.0000 C   0  0  0  0  0  0  0  0  0  0  0  0
   -5.2500   -9.0933    0.0000 C   0  0  0  0  0  0  0  0  0  0  0  0
   -6.7500   -9.0933    0.0000 C   0  0  0  0  0  0  0  0  0  0  0  0
   -3.7500   -6.4952    0.0000 C   0  0  0  0  0  0  0  0  0  0  0  0
   -3.0000   -5.1962    0.0000 O   0  0  0  0  0  0  0  0  0  0  0  0
   -5.2500   -6.4952    0.0000 O   0  0  0  0  0  0  0  0  0  0  0  0
  2  1  1  6
  2  3  1  0
  3  4  1  0
  4  5  1  0
  4  6  1  0
  2  7  1  0
  7  8  2  0
  7  9  1  0
  9 10  1  0
  9 11  1  0
 11 12  1  1
 12 13  1  0
 13 14  1  0
 13 15  1  0
 11 16  1  0
 16 17  2  0
 16 18  1  0
 18 19  1  0
 19 20  1  0
 20 21  1  0
 21 22  1  0
 22 23  1  1
 23 24  2  0
 23 25  1  0
 25 26  1  0
 26 27  1  0
 27 28  1  0
 28 29  2  0
 29 30  1  0
 30 31  2  0
 31 32  1  0
 32 33  1  0
 33 34  1  0
 32 35  2  0
 31 36  1  0
 36 37  1  0
 25 38  1  0
 38 39  1  0
 39 40  2  0
 39 41  1  0
 41 42  1  0
 42 43  1  1
 43 44  1  0
 44 45  3  0
 42 46  1  0
 46 47  2  0
 46 48  1  0
 35 28  1  0
 22 18  1  0
M  END
$$$$

     RDKit          2D

 48 49  0  0  0  0  0  0  0  0999 V2000
   10.7238   -2.5050    0.0000 N   0  0  0  0  0  0  0  0  0  0  0  0
    9.2566   -2.1931    0.0000 C   0  0  0  0  0  0  0  0  0  0  0  0
    8.7930   -0.7665    0.0000 C   0  0  0  0  0  0  0  0  0  0  0  0
    9.7967    0.3482    0.0000 C   0  0  0  0  0  0  0  0  0  0  0  0
    9.3332    1.7748    0.0000 C   0  0  0  0  0  0  0  0  0  0  0  0
   11.2640    0.0363    0.0000 C   0  0  0  0  0  0  0  0  0  0  0  0
    8.2529   -3.3078    0.0000 C   0  0  0  0  0  0  0  0  0  0  0  0
    6.7856   -2.9960    0.0000 O   0  0  0  0  0  0  0  0  0  0  0  0
    8.7164   -4.7344    0.0000 N   0  0  0  0  0  0  0  0  0  0  0  0
   10.1836   -5.0463    0.0000 C   0  0  0  0  0  0  0  0  0  0  0  0
    7.7127   -5.8491    0.0000 C   0  0  0  0  0  0  0  0  0  0  0  0
    8.1762   -7.2757    0.0000 C   0  0  0  0  0  0  0  0  0  0  0  0
    9.6434   -7.5876    0.0000 C   0  0  0  0  0  0  0  0  0  0  0  0
   10.1070   -9.0142    0.0000 C   0  0  0  0  0  0  0  0  0  0  0  0
   10.6471   -6.4729    0.0000 C   0  0  0  0  0  0  0  0  0  0  0  0
    6.2455   -5.5373    0.0000 C   0  0  0  0  0  0  0  0  0  0  0  0
    5.7820   -4.1107    0.0000 O   0  0  0  0  0  0  0  0  0  0  0  0
    5.2418   -6.6520    0.0000 N   0  0  0  0  0  0  0  0  0  0  0  0
    5.5537   -8.1192    0.0000 C   0  0  0  0  0  0  0  0  0  0  0  0
    4.2546   -8.8692    0.0000 C   0  0  0  0  0  0  0  0  0  0  0  0
    3.1399   -7.8655    0.0000 C   0  0  0  0  0  0  0  0  0  0  0  0
    3.7500   -6.4952    0.0000 C   0  0  0  0  0  0  0  0  0  0  0  0
    3.0000   -5.1962    0.0000 C   0  0  0  0  0  0  0  0  0  0  0  0
    3.7500   -3.8971    0.0000 O   0  0  0  0  0  0  0  0  0  0  0  0
    1.5000   -5.1962    0.0000 N   0  0  0  0  0  0  0  0  0  0  0  0
    0.7500   -3.8971    0.0000 C   0  0  0  0  0  0  0  0  0  0  0  0
    1.5000   -2.5981    0.0000 C   0  0  0  0  0  0  0  0  0  0  0  0
    0.7500   -1.2990    0.0000 C   0  0  0  0  0  0  0  0  0  0  0  0
    1.5000    0.0000    0.0000 C   0  0  0  0  0  0  0  0  0  0  0  0
    0.7500    1.2990    0.0000 C   0  0  0  0  0  0  0  0  0  0  0  0
   -0.7500    1.2990    0.0000 C   0  0  0  0  0  0  0  0  0  0  0  0
   -1.5000    0.0000    0.0000 C   0  0  0  0  0  0  0  0  0  0  0  0
   -3.0000    0.0000    0.0000 O   0  0  0  0  0  0  0  0  0  0  0  0
   -3.7500   -1.2990    0.0000 C   0  0  0  0  0  0  0  0  0  0  0  0
   -0.7500   -1.2990    0.0000 C   0  0  0  0  0  0  0  0  0  0  0  0
   -1.5000    2.5981    0.0000 O   0  0  0  0  0  0  0  0  0  0  0  0
   -0.7500    3.8971    0.0000 C   0  0  0  0  0  0  0  0  0  0  0  0
    0.7500   -6.4952    0.0000 C   0  0  0  0  0  0  0  0  0  0  0  0
   -0.7500   -6.4952    0.0000 C   0  0  0  0  0  0  0  0  0  0  0  0
   -1.5000   -5.1962    0.0000 O   0  0  0  0  0  0  0  0  0  0  0  0
   -1.5000   -7.7942    0.0000 N   0  0  0  0  0  0  0  0  0  0  0  0
   -3.0000   -7.7942    0.0000 C   0  0  0  0  0  0  0  0  0  0  0  0
   -3.7500   -9.0933    0.0000 C   0  0  0  0  0  0  0  0  0  0  0  0
   -5.2500   -9.0933    0.0000 C   0  0  0  0  0  0  0  0  0  0  0  0
   -6.7500   -9.0933    0.0000 C   0  0  0  0  0  0  0  0  0  0  0  0
   -3.7500   -6.4952    0.0000 C   0  0  0  0  0  0  0  0  0  0  0  0
   -3.0000   -5.1962    0.0000 O   0  0  0  0  0  0  0  0  0  0  0  0
   -5.2500   -6.4952    0.0000 O   0  0  0  0  0  0  0  0  0  0  0  0
  2  1  1  1
  2  3  1  0
  3  4  1  0
  4  5  1  0
  4  6  1  0
  2  7  1  0
  7  8  2  0
  7  9  1  0
  9 10  1  0
  9 11  1  0
 11 12  1  1
 12 13  1  0
 13 14  1  0
 13 15  1  0
 11 16  1  0
 16 17  2  0
 16 18  1  0
 18 19  1  0
 19 20  1  0
 20 21  1  0
 21 22  1  0
 22 23  1  1
 23 24  2  0
 23 25  1  0
 25 26  1  0
 26 27  1  0
 27 28  1  0
 28 29  2  0
 29 30  1  0
 30 31  2  0
 31 32  1  0
 32 33  1  0
 33 34  1  0
 32 35  2  0
 31 36  1  0
 36 37  1  0
 25 38  1  0
 38 39  1  0
 39 40  2  0
 39 41  1  0
 41 42  1  0
 42 43  1  1
 43 44  1  0
 44 45  3  0
 42 46  1  0
 46 47  2  0
 46 48  1  0
 35 28  1  0
 22 18  1  0
M  END
$$$$

     RDKit          2D

 39 39  0  0  0  0  0  0  0  0999 V2000
   -1.7240    5.1962    0.0000 N   0  0  0  0  0  0  0  0  0  0  0  0
   -0.9740    6.4952    0.0000 C   0  0  0  0  0  0  0  0  0  0  0  0
   -1.7240    7.7942    0.0000 C   0  0  0  0  0  0  0  0  0  0  0  0
   -3.2240    7.7942    0.0000 C   0  0  0  0  0  0  0  0  0  0  0  0
   -3.9740    9.0933    0.0000 C   0  0  0  0  0  0  0  0  0  0  0  0
   -3.9740    6.4952    0.0000 C   0  0  0  0  0  0  0  0  0  0  0  0
    0.5260    6.4952    0.0000 C   0  0  0  0  0  0  0  0  0  0  0  0
    1.2760    7.7942    0.0000 O   0  0  0  0  0  0  0  0  0  0  0  0
    1.2760    5.1962    0.0000 N   0  0  0  0  0  0  0  0  0  0  0  0
    2.7760    5.1962    0.0000 C   0  0  0  0  0  0  0  0  0  0  0  0
    3.5260    6.4952    0.0000 C   0  0  0  0  0  0  0  0  0  0  0  0
    5.0260    6.4952    0.0000 C   0  0  0  0  0  0  0  0  0  0  0  0
    5.7760    5.1962    0.0000 C   0  0  0  0  0  0  0  0  0  0  0  0
    5.7760    7.7942    0.0000 C   0  0  0  0  0  0  0  0  0  0  0  0
    3.5260    3.8971    0.0000 C   0  0  0  0  0  0  0  0  0  0  0  0
    5.0260    3.8971    0.0000 O   0  0  0  0  0  0  0  0  0  0  0  0
    2.7760    2.5981    0.0000 N   0  0  0  0  0  0  0  0  0  0  0  0
    3.5260    1.2990    0.0000 C   0  0  0  0  0  0  0  0  0  0  0  0
    5.0260    1.2990    0.0000 C   0  0  0  0  0  0  0  0  0  0  0  0
    5.7760    0.0000    0.0000 C   0  0  0  0  0  0  0  0  0  0  0  0
    5.0260   -1.2990    0.0000 C   0  0  0  0  0  0  0  0  0  0  0  0
    7.2760    0.0000    0.0000 C   0  0  0  0  0  0  0  0  0  0  0  0
    2.7760    0.0000    0.0000 C   0  0  0  0  0  0  0  0  0  0  0  0
    3.5260   -1.2990    0.0000 O   0  0  0  0  0  0  0  0  0  0  0  0
    1.2760    0.0000    0.0000 N   0  0  0  0  0  0  0  0  0  0  0  0
    0.3943    1.2135    0.0000 C   0  0  0  0  0  0  0  0  0  0  0  0
   -1.0323    0.7500    0.0000 C   0  0  0  0  0  0  0  0  0  0  0  0
   -1.0323   -0.7500    0.0000 C   0  0  0  0  0  0  0  0  0  0  0  0
    0.3943   -1.2135    0.0000 C   0  0  0  0  0  0  0  0  0  0  0  0
    0.8578   -2.6401    0.0000 C   0  0  0  0  0  0  0  0  0  0  0  0
    2.3250   -2.9520    0.0000 O   0  0  0  0  0  0  0  0  0  0  0  0
   -0.1459   -3.7548    0.0000 N   0  0  0  0  0  0  0  0  0  0  0  0
    0.3177   -5.1814    0.0000 C   0  0  0  0  0  0  0  0  0  0  0  0
   -0.6860   -6.2961    0.0000 C   0  0  0  0  0  0  0  0  0  0  0  0
   -0.2225   -7.7227    0.0000 C   0  0  0  0  0  0  0  0  0  0  0  0
    0.2410   -9.1493    0.0000 C   0  0  0  0  0  0  0  0  0  0  0  0
    1.7849   -5.4933    0.0000 C   0  0  0  0  0  0  0  0  0  0  0  0
    2.7886   -4.3786    0.0000 O   0  0  0  0  0  0  0  0  0  0  0  0
    2.2484   -6.9199    0.0000 O   0  0  0  0  0  0  0  0  0  0  0  0
  2  1  1  1
  2  3  1  0
  3  4  1  0
  4  5  1  0
  4  6  1  0
  2  7  1  0
  7  8  2  0
  7  9  1  0
  9 10  1  0
 10 11  1  1
 11 12  1  0
 12 13  1  0
 12 14  1  0
 10 15  1  0
 15 16  2  0
 15 17  1  0
 17 18  1  0
 18 19  1  1
 19 20  1  0
 20 21  1  0
 20 22  1  0
 18 23  1  0
 23 24  2  0
 23 25  1  0
 25 26  1  0
 26 27  1  0
 27 28  1  0
 28 29  1  0
 29 30  1  6
 30 31  2  0
 30 32  1  0
 32 33  1  0
 33 34  1  6
 34 35  1  0
 35 36  3  0
 33 37  1  0
 37 38  2  0
 37 39  1  0
 29 25  1  0
M  END
$$$$

     RDKit          2D

 39 39  0  0  0  0  0  0  0  0999 V2000
   -1.7240    5.1962    0.0000 N   0  0  0  0  0  0  0  0  0  0  0  0
   -0.9740    6.4952    0.0000 C   0  0  0  0  0  0  0  0  0  0  0  0
   -1.7240    7.7942    0.0000 C   0  0  0  0  0  0  0  0  0  0  0  0
   -3.2240    7.7942    0.0000 C   0  0  0  0  0  0  0  0  0  0  0  0
   -3.9740    9.0933    0.0000 C   0  0  0  0  0  0  0  0  0  0  0  0
   -3.9740    6.4952    0.0000 C   0  0  0  0  0  0  0  0  0  0  0  0
    0.5260    6.4952    0.0000 C   0  0  0  0  0  0  0  0  0  0  0  0
    1.2760    7.7942    0.0000 O   0  0  0  0  0  0  0  0  0  0  0  0
    1.2760    5.1962    0.0000 N   0  0  0  0  0  0  0  0  0  0  0  0
    2.7760    5.1962    0.0000 C   0  0  0  0  0  0  0  0  0  0  0  0
    3.5260    6.4952    0.0000 C   0  0  0  0  0  0  0  0  0  0  0  0
    5.0260    6.4952    0.0000 C   0  0  0  0  0  0  0  0  0  0  0  0
    5.7760    5.1962    0.0000 C   0  0  0  0  0  0  0  0  0  0  0  0
    5.7760    7.7942    0.0000 C   0  0  0  0  0  0  0  0  0  0  0  0
    3.5260    3.8971    0.0000 C   0  0  0  0  0  0  0  0  0  0  0  0
    5.0260    3.8971    0.0000 O   0  0  0  0  0  0  0  0  0  0  0  0
    2.7760    2.5981    0.0000 N   0  0  0  0  0  0  0  0  0  0  0  0
    3.5260    1.2990    0.0000 C   0  0  0  0  0  0  0  0  0  0  0  0
    5.0260    1.2990    0.0000 C   0  0  0  0  0  0  0  0  0  0  0  0
    5.7760    0.0000    0.0000 C   0  0  0  0  0  0  0  0  0  0  0  0
    5.0260   -1.2990    0.0000 C   0  0  0  0  0  0  0  0  0  0  0  0
    7.2760    0.0000    0.0000 C   0  0  0  0  0  0  0  0  0  0  0  0
    2.7760    0.0000    0.0000 C   0  0  0  0  0  0  0  0  0  0  0  0
    3.5260   -1.2990    0.0000 O   0  0  0  0  0  0  0  0  0  0  0  0
    1.2760    0.0000    0.0000 N   0  0  0  0  0  0  0  0  0  0  0  0
    0.3943    1.2135    0.0000 C   0  0  0  0  0  0  0  0  0  0  0  0
   -1.0323    0.7500    0.0000 C   0  0  0  0  0  0  0  0  0  0  0  0
   -1.0323   -0.7500    0.0000 C   0  0  0  0  0  0  0  0  0  0  0  0
    0.3943   -1.2135    0.0000 C   0  0  0  0  0  0  0  0  0  0  0  0
    0.8578   -2.6401    0.0000 C   0  0  0  0  0  0  0  0  0  0  0  0
    2.3250   -2.9520    0.0000 O   0  0  0  0  0  0  0  0  0  0  0  0
   -0.1459   -3.7548    0.0000 N   0  0  0  0  0  0  0  0  0  0  0  0
    0.3177   -5.1814    0.0000 C   0  0  0  0  0  0  0  0  0  0  0  0
   -0.6860   -6.2961    0.0000 C   0  0  0  0  0  0  0  0  0  0  0  0
   -0.2225   -7.7227    0.0000 C   0  0  0  0  0  0  0  0  0  0  0  0
    0.2410   -9.1493    0.0000 C   0  0  0  0  0  0  0  0  0  0  0  0
    1.7849   -5.4933    0.0000 C   0  0  0  0  0  0  0  0  0  0  0  0
    2.7886   -4.3786    0.0000 O   0  0  0  0  0  0  0  0  0  0  0  0
    2.2484   -6.9199    0.0000 O   0  0  0  0  0  0  0  0  0  0  0  0
  2  1  1  6
  2  3  1  0
  3  4  1  0
  4  5  1  0
  4  6  1  0
  2  7  1  0
  7  8  2  0
  7  9  1  0
  9 10  1  0
 10 11  1  1
 11 12  1  0
 12 13  1  0
 12 14  1  0
 10 15  1  0
 15 16  2  0
 15 17  1  0
 17 18  1  0
 18 19  1  1
 19 20  1  0
 20 21  1  0
 20 22  1  0
 18 23  1  0
 23 24  2  0
 23 25  1  0
 25 26  1  0
 26 27  1  0
 27 28  1  0
 28 29  1  0
 29 30  1  6
 30 31  2  0
 30 32  1  0
 32 33  1  0
 33 34  1  6
 34 35  1  0
 35 36  3  0
 33 37  1  0
 37 38  2  0
 37 39  1  0
 29 25  1  0
M  END
$$$$

     RDKit          2D

 38 38  0  0  0  0  0  0  0  0999 V2000
   -1.7240    5.1962    0.0000 N   0  0  0  0  0  0  0  0  0  0  0  0
   -0.9740    6.4952    0.0000 C   0  0  0  0  0  0  0  0  0  0  0  0
   -1.7240    7.7942    0.0000 C   0  0  0  0  0  0  0  0  0  0  0  0
   -3.2240    7.7942    0.0000 C   0  0  0  0  0  0  0  0  0  0  0  0
   -0.9740    9.0933    0.0000 C   0  0  0  0  0  0  0  0  0  0  0  0
    0.5260    6.4952    0.0000 C   0  0  0  0  0  0  0  0  0  0  0  0
    1.2760    7.7942    0.0000 O   0  0  0  0  0  0  0  0  0  0  0  0
    1.2760    5.1962    0.0000 N   0  0  0  0  0  0  0  0  0  0  0  0
    2.7760    5.1962    0.0000 C   0  0  0  0  0  0  0  0  0  0  0  0
    3.5260    6.4952    0.0000 C   0  0  0  0  0  0  0  0  0  0  0  0
    5.0260    6.4952    0.0000 C   0  0  0  0  0  0  0  0  0  0  0  0
    5.7760    7.7942    0.0000 C   0  0  0  0  0  0  0  0  0  0  0  0
    5.7760    5.1962    0.0000 C   0  0  0  0  0  0  0  0  0  0  0  0
    3.5260    3.8971    0.0000 C   0  0  0  0  0  0  0  0  0  0  0  0
    5.0260    3.8971    0.0000 O   0  0  0  0  0  0  0  0  0  0  0  0
    2.7760    2.5981    0.0000 N   0  0  0  0  0  0  0  0  0  0  0  0
    3.5260    1.2990    0.0000 C   0  0  0  0  0  0  0  0  0  0  0  0
    5.0260    1.2990    0.0000 C   0  0  0  0  0  0  0  0  0  0  0  0
    5.7760    0.0000    0.0000 C   0  0  0  0  0  0  0  0  0  0  0  0
    7.2760    0.0000    0.0000 C   0  0  0  0  0  0  0  0  0  0  0  0
    5.0260   -1.2990    0.0000 C   0  0  0  0  0  0  0  0  0  0  0  0
    2.7760    0.0000    0.0000 C   0  0  0  0  0  0  0  0  0  0  0  0
    3.5260   -1.2990    0.0000 O   0  0  0  0  0  0  0  0  0  0  0  0
    1.2760    0.0000    0.0000 N   0  0  0  0  0  0  0  0  0  0  0  0
    0.3943    1.2135    0.0000 C   0  0  0  0  0  0  0  0  0  0  0  0
   -1.0323    0.7500    0.0000 C   0  0  0  0  0  0  0  0  0  0  0  0
   -1.0323   -0.7500    0.0000 C   0  0  0  0  0  0  0  0  0  0  0  0
    0.3943   -1.2135    0.0000 C   0  0  0  0  0  0  0  0  0  0  0  0
    0.8578   -2.6401    0.0000 C   0  0  0  0  0  0  0  0  0  0  0  0
    2.3250   -2.9520    0.0000 O   0  0  0  0  0  0  0  0  0  0  0  0
   -0.1459   -3.7548    0.0000 N   0  0  0  0  0  0  0  0  0  0  0  0
    0.3177   -5.1814    0.0000 C   0  0  0  0  0  0  0  0  0  0  0  0
   -0.6860   -6.2961    0.0000 C   0  0  0  0  0  0  0  0  0  0  0  0
   -0.2225   -7.7227    0.0000 C   0  0  0  0  0  0  0  0  0  0  0  0
    0.2410   -9.1493    0.0000 C   0  0  0  0  0  0  0  0  0  0  0  0
    1.7849   -5.4933    0.0000 C   0  0  0  0  0  0  0  0  0  0  0  0
    2.7886   -4.3786    0.0000 O   0  0  0  0  0  0  0  0  0  0  0  0
    2.2484   -6.9199    0.0000 O   0  0  0  0  0  0  0  0  0  0  0  0
  2  1  1  1
  2  3  1  0
  3  4  1  0
  3  5  1  0
  2  6  1  0
  6  7  2  0
  6  8  1  0
  8  9  1  0
  9 10  1  1
 10 11  1  0
 11 12  1  0
 11 13  1  0
  9 14  1  0
 14 15  2  0
 14 16  1  0
 16 17  1  0
 17 18  1  1
 18 19  1  0
 19 20  1  0
 19 21  1  0
 17 22  1  0
 22 23  2  0
 22 24  1  0
 24 25  1  0
 25 26  1  0
 26 27  1  0
 27 28  1  0
 28 29  1  6
 29 30  2  0
 29 31  1  0
 31 32  1  0
 32 33  1  6
 33 34  1  0
 34 35  3  0
 32 36  1  0
 36 37  2  0
 36 38  1  0
 28 24  1  0
M  END
$$$$

     RDKit          2D

 38 38  0  0  0  0  0  0  0  0999 V2000
   -1.7240    5.1962    0.0000 N   0  0  0  0  0  0  0  0  0  0  0  0
   -0.9740    6.4952    0.0000 C   0  0  0  0  0  0  0  0  0  0  0  0
   -1.7240    7.7942    0.0000 C   0  0  0  0  0  0  0  0  0  0  0  0
   -3.2240    7.7942    0.0000 C   0  0  0  0  0  0  0  0  0  0  0  0
   -0.9740    9.0933    0.0000 C   0  0  0  0  0  0  0  0  0  0  0  0
    0.5260    6.4952    0.0000 C   0  0  0  0  0  0  0  0  0  0  0  0
    1.2760    7.7942    0.0000 O   0  0  0  0  0  0  0  0  0  0  0  0
    1.2760    5.1962    0.0000 N   0  0  0  0  0  0  0  0  0  0  0  0
    2.7760    5.1962    0.0000 C   0  0  0  0  0  0  0  0  0  0  0  0
    3.5260    6.4952    0.0000 C   0  0  0  0  0  0  0  0  0  0  0  0
    5.0260    6.4952    0.0000 C   0  0  0  0  0  0  0  0  0  0  0  0
    5.7760    7.7942    0.0000 C   0  0  0  0  0  0  0  0  0  0  0  0
    5.7760    5.1962    0.0000 C   0  0  0  0  0  0  0  0  0  0  0  0
    3.5260    3.8971    0.0000 C   0  0  0  0  0  0  0  0  0  0  0  0
    5.0260    3.8971    0.0000 O   0  0  0  0  0  0  0  0  0  0  0  0
    2.7760    2.5981    0.0000 N   0  0  0  0  0  0  0  0  0  0  0  0
    3.5260    1.2990    0.0000 C   0  0  0  0  0  0  0  0  0  0  0  0
    5.0260    1.2990    0.0000 C   0  0  0  0  0  0  0  0  0  0  0  0
    5.7760    0.0000    0.0000 C   0  0  0  0  0  0  0  0  0  0  0  0
    7.2760    0.0000    0.0000 C   0  0  0  0  0  0  0  0  0  0  0  0
    5.0260   -1.2990    0.0000 C   0  0  0  0  0  0  0  0  0  0  0  0
    2.7760    0.0000    0.0000 C   0  0  0  0  0  0  0  0  0  0  0  0
    3.5260   -1.2990    0.0000 O   0  0  0  0  0  0  0  0  0  0  0  0
    1.2760    0.0000    0.0000 N   0  0  0  0  0  0  0  0  0  0  0  0
    0.3943    1.2135    0.0000 C   0  0  0  0  0  0  0  0  0  0  0  0
   -1.0323    0.7500    0.0000 C   0  0  0  0  0  0  0  0  0  0  0  0
   -1.0323   -0.7500    0.0000 C   0  0  0  0  0  0  0  0  0  0  0  0
    0.3943   -1.2135    0.0000 C   0  0  0  0  0  0  0  0  0  0  0  0
    0.8578   -2.6401    0.0000 C   0  0  0  0  0  0  0  0  0  0  0  0
    2.3250   -2.9520    0.0000 O   0  0  0  0  0  0  0  0  0  0  0  0
   -0.1459   -3.7548    0.0000 N   0  0  0  0  0  0  0  0  0  0  0  0
    0.3177   -5.1814    0.0000 C   0  0  0  0  0  0  0  0  0  0  0  0
   -0.6860   -6.2961    0.0000 C   0  0  0  0  0  0  0  0  0  0  0  0
   -0.2225   -7.7227    0.0000 C   0  0  0  0  0  0  0  0  0  0  0  0
    0.2410   -9.1493    0.0000 C   0  0  0  0  0  0  0  0  0  0  0  0
    1.7849   -5.4933    0.0000 C   0  0  0  0  0  0  0  0  0  0  0  0
    2.7886   -4.3786    0.0000 O   0  0  0  0  0  0  0  0  0  0  0  0
    2.2484   -6.9199    0.0000 O   0  0  0  0  0  0  0  0  0  0  0  0
  2  1  1  6
  2  3  1  0
  3  4  1  0
  3  5  1  0
  2  6  1  0
  6  7  2  0
  6  8  1  0
  8  9  1  0
  9 10  1  1
 10 11  1  0
 11 12  1  0
 11 13  1  0
  9 14  1  0
 14 15  2  0
 14 16  1  0
 16 17  1  0
 17 18  1  1
 18 19  1  0
 19 20  1  0
 19 21  1  0
 17 22  1  0
 22 23  2  0
 22 24  1  0
 24 25  1  0
 25 26  1  0
 26 27  1  0
 27 28  1  0
 28 29  1  6
 29 30  2  0
 29 31  1  0
 31 32  1  0
 32 33  1  6
 33 34  1  0
 34 35  3  0
 32 36  1  0
 36 37  2  0
 36 38  1  0
 28 24  1  0
M  END
$$$$

     RDKit          2D

 40 40  0  0  0  0  0  0  0  0999 V2000
   -1.7240    5.1962    0.0000 N   0  0  0  0  0  0  0  0  0  0  0  0
   -3.2240    5.1962    0.0000 C   0  0  0  0  0  0  0  0  0  0  0  0
   -0.9740    6.4952    0.0000 C   0  0  0  0  0  0  0  0  0  0  0  0
   -1.7240    7.7942    0.0000 C   0  0  0  0  0  0  0  0  0  0  0  0
   -3.2240    7.7942    0.0000 C   0  0  0  0  0  0  0  0  0  0  0  0
   -3.9740    9.0933    0.0000 C   0  0  0  0  0  0  0  0  0  0  0  0
   -3.9740    6.4952    0.0000 C   0  0  0  0  0  0  0  0  0  0  0  0
    0.5260    6.4952    0.0000 C   0  0  0  0  0  0  0  0  0  0  0  0
    1.2760    7.7942    0.0000 O   0  0  0  0  0  0  0  0  0  0  0  0
    1.2760    5.1962    0.0000 N   0  0  0  0  0  0  0  0  0  0  0  0
    2.7760    5.1962    0.0000 C   0  0  0  0  0  0  0  0  0  0  0  0
    3.5260    6.4952    0.0000 C   0  0  0  0  0  0  0  0  0  0  0  0
    5.0260    6.4952    0.0000 C   0  0  0  0  0  0  0  0  0  0  0  0
    5.7760    5.1962    0.0000 C   0  0  0  0  0  0  0  0  0  0  0  0
    5.7760    7.7942    0.0000 C   0  0  0  0  0  0  0  0  0  0  0  0
    3.5260    3.8971    0.0000 C   0  0  0  0  0  0  0  0  0  0  0  0
    5.0260    3.8971    0.0000 O   0  0  0  0  0  0  0  0  0  0  0  0
    2.7760    2.5981    0.0000 N   0  0  0  0  0  0  0  0  0  0  0  0
    3.5260    1.2990    0.0000 C   0  0  0  0  0  0  0  0  0  0  0  0
    5.0260    1.2990    0.0000 C   0  0  0  0  0  0  0  0  0  0  0  0
    5.7760    0.0000    0.0000 C   0  0  0  0  0  0  0  0  0  0  0  0
    7.2760    0.0000    0.0000 C   0  0  0  0  0  0  0  0  0  0  0  0
    5.0260   -1.2990    0.0000 C   0  0  0  0  0  0  0  0  0  0  0  0
    2.7760    0.0000    0.0000 C   0  0  0  0  0  0  0  0  0  0  0  0
    3.5260   -1.2990    0.0000 O   0  0  0  0  0  0  0  0  0  0  0  0
    1.2760    0.0000    0.0000 N   0  0  0  0  0  0  0  0  0  0  0  0
    0.3943    1.2135    0.0000 C   0  0  0  0  0  0  0  0  0  0  0  0
   -1.0323    0.7500    0.0000 C   0  0  0  0  0  0  0  0  0  0  0  0
   -1.0323   -0.7500    0.0000 C   0  0  0  0  0  0  0  0  0  0  0  0
    0.3943   -1.2135    0.0000 C   0  0  0  0  0  0  0  0  0  0  0  0
    0.8578   -2.6401    0.0000 C   0  0  0  0  0  0  0  0  0  0  0  0
    2.3250   -2.9520    0.0000 O   0  0  0  0  0  0  0  0  0  0  0  0
   -0.1459   -3.7548    0.0000 N   0  0  0  0  0  0  0  0  0  0  0  0
    0.3177   -5.1814    0.0000 C   0  0  0  0  0  0  0  0  0  0  0  0
   -0.6860   -6.2961    0.0000 C   0  0  0  0  0  0  0  0  0  0  0  0
   -0.2225   -7.7227    0.0000 C   0  0  0  0  0  0  0  0  0  0  0  0
    0.2410   -9.1493    0.0000 C   0  0  0  0  0  0  0  0  0  0  0  0
    1.7849   -5.4933    0.0000 C   0  0  0  0  0  0  0  0  0  0  0  0
    2.7886   -4.3786    0.0000 O   0  0  0  0  0  0  0  0  0  0  0  0
    2.2484   -6.9199    0.0000 O   0  0  0  0  0  0  0  0  0  0  0  0
  1  2  1  0
  1  3  1  0
  3  4  1  1
  4  5  1  0
  5  6  1  0
  5  7  1  0
  3  8  1  0
  8  9  2  0
  8 10  1  0
 10 11  1  0
 11 12  1  1
 12 13  1  0
 13 14  1  0
 13 15  1  0
 11 16  1  0
 16 17  2  0
 16 18  1  0
 18 19  1  0
 19 20  1  1
 20 21  1  0
 21 22  1  0
 21 23  1  0
 19 24  1  0
 24 25  2  0
 24 26  1  0
 26 27  1  0
 27 28  1  0
 28 29  1  0
 29 30  1  0
 30 31  1  6
 31 32  2  0
 31 33  1  0
 33 34  1  0
 34 35  1  6
 35 36  1  0
 36 37  3  0
 34 38  1  0
 38 39  2  0
 38 40  1  0
 30 26  1  0
M  END
$$$$

     RDKit          2D

 40 40  0  0  0  0  0  0  0  0999 V2000
   -1.7240    5.1962    0.0000 N   0  0  0  0  0  0  0  0  0  0  0  0
   -3.2240    5.1962    0.0000 C   0  0  0  0  0  0  0  0  0  0  0  0
   -0.9740    6.4952    0.0000 C   0  0  0  0  0  0  0  0  0  0  0  0
   -1.7240    7.7942    0.0000 C   0  0  0  0  0  0  0  0  0  0  0  0
   -3.2240    7.7942    0.0000 C   0  0  0  0  0  0  0  0  0  0  0  0
   -3.9740    9.0933    0.0000 C   0  0  0  0  0  0  0  0  0  0  0  0
   -3.9740    6.4952    0.0000 C   0  0  0  0  0  0  0  0  0  0  0  0
    0.5260    6.4952    0.0000 C   0  0  0  0  0  0  0  0  0  0  0  0
    1.2760    7.7942    0.0000 O   0  0  0  0  0  0  0  0  0  0  0  0
    1.2760    5.1962    0.0000 N   0  0  0  0  0  0  0  0  0  0  0  0
    2.7760    5.1962    0.0000 C   0  0  0  0  0  0  0  0  0  0  0  0
    3.5260    6.4952    0.0000 C   0  0  0  0  0  0  0  0  0  0  0  0
    5.0260    6.4952    0.0000 C   0  0  0  0  0  0  0  0  0  0  0  0
    5.7760    5.1962    0.0000 C   0  0  0  0  0  0  0  0  0  0  0  0
    5.7760    7.7942    0.0000 C   0  0  0  0  0  0  0  0  0  0  0  0
    3.5260    3.8971    0.0000 C   0  0  0  0  0  0  0  0  0  0  0  0
    5.0260    3.8971    0.0000 O   0  0  0  0  0  0  0  0  0  0  0  0
    2.7760    2.5981    0.0000 N   0  0  0  0  0  0  0  0  0  0  0  0
    3.5260    1.2990    0.0000 C   0  0  0  0  0  0  0  0  0  0  0  0
    5.0260    1.2990    0.0000 C   0  0  0  0  0  0  0  0  0  0  0  0
    5.7760    0.0000    0.0000 C   0  0  0  0  0  0  0  0  0  0  0  0
    7.2760    0.0000    0.0000 C   0  0  0  0  0  0  0  0  0  0  0  0
    5.0260   -1.2990    0.0000 C   0  0  0  0  0  0  0  0  0  0  0  0
    2.7760    0.0000    0.0000 C   0  0  0  0  0  0  0  0  0  0  0  0
    3.5260   -1.2990    0.0000 O   0  0  0  0  0  0  0  0  0  0  0  0
    1.2760    0.0000    0.0000 N   0  0  0  0  0  0  0  0  0  0  0  0
    0.3943    1.2135    0.0000 C   0  0  0  0  0  0  0  0  0  0  0  0
   -1.0323    0.7500    0.0000 C   0  0  0  0  0  0  0  0  0  0  0  0
   -1.0323   -0.7500    0.0000 C   0  0  0  0  0  0  0  0  0  0  0  0
    0.3943   -1.2135    0.0000 C   0  0  0  0  0  0  0  0  0  0  0  0
    0.8578   -2.6401    0.0000 C   0  0  0  0  0  0  0  0  0  0  0  0
    2.3250   -2.9520    0.0000 O   0  0  0  0  0  0  0  0  0  0  0  0
   -0.1459   -3.7548    0.0000 N   0  0  0  0  0  0  0  0  0  0  0  0
    0.3177   -5.1814    0.0000 C   0  0  0  0  0  0  0  0  0  0  0  0
   -0.6860   -6.2961    0.0000 C   0  0  0  0  0  0  0  0  0  0  0  0
   -0.2225   -7.7227    0.0000 C   0  0  0  0  0  0  0  0  0  0  0  0
    0.2410   -9.1493    0.0000 C   0  0  0  0  0  0  0  0  0  0  0  0
    1.7849   -5.4933    0.0000 C   0  0  0  0  0  0  0  0  0  0  0  0
    2.7886   -4.3786    0.0000 O   0  0  0  0  0  0  0  0  0  0  0  0
    2.2484   -6.9199    0.0000 O   0  0  0  0  0  0  0  0  0  0  0  0
  1  2  1  0
  1  3  1  0
  3  4  1  6
  4  5  1  0
  5  6  1  0
  5  7  1  0
  3  8  1  0
  8  9  2  0
  8 10  1  0
 10 11  1  0
 11 12  1  1
 12 13  1  0
 13 14  1  0
 13 15  1  0
 11 16  1  0
 16 17  2  0
 16 18  1  0
 18 19  1  0
 19 20  1  1
 20 21  1  0
 21 22  1  0
 21 23  1  0
 19 24  1  0
 24 25  2  0
 24 26  1  0
 26 27  1  0
 27 28  1  0
 28 29  1  0
 29 30  1  0
 30 31  1  6
 31 32  2  0
 31 33  1  0
 33 34  1  0
 34 35  1  6
 35 36  1  0
 36 37  3  0
 34 38  1  0
 38 39  2  0
 38 40  1  0
 30 26  1  0
M  END
$$$$

     RDKit          2D

 42 43  0  0  0  0  0  0  0  0999 V2000
   -0.7500   -3.8971    0.0000 N   0  0  0  0  0  0  0  0  0  0  0  0
    0.7500   -3.8971    0.0000 C   0  0  0  0  0  0  0  0  0  0  0  0
    1.5000   -2.5981    0.0000 C   0  0  0  0  0  0  0  0  0  0  0  0
    0.7500   -1.2990    0.0000 C   0  0  0  0  0  0  0  0  0  0  0  0
    1.5000    0.0000    0.0000 C   0  0  0  0  0  0  0  0  0  0  0  0
    0.7500    1.2990    0.0000 C   0  0  0  0  0  0  0  0  0  0  0  0
   -0.7500    1.2990    0.0000 C   0  0  0  0  0  0  0  0  0  0  0  0
   -1.5000    0.0000    0.0000 C   0  0  0  0  0  0  0  0  0  0  0  0
   -0.7500   -1.2990    0.0000 C   0  0  0  0  0  0  0  0  0  0  0  0
    1.5000   -5.1962    0.0000 C   0  0  0  0  0  0  0  0  0  0  0  0
    3.0000   -5.1962    0.0000 O   0  0  0  0  0  0  0  0  0  0  0  0
    0.7500   -6.4952    0.0000 N   0  0  0  0  0  0  0  0  0  0  0  0
    1.5000   -7.7942    0.0000 C   0  0  0  0  0  0  0  0  0  0  0  0
    0.7500   -9.0933    0.0000 C   0  0  0  0  0  0  0  0  0  0  0  0
    1.5000  -10.3923    0.0000 C   0  0  0  0  0  0  0  0  0  0  0  0
    0.7500  -11.6913    0.0000 C   0  0  0  0  0  0  0  0  0  0  0  0
    3.0000  -10.3923    0.0000 C   0  0  0  0  0  0  0  0  0  0  0  0
    3.0000   -7.7942    0.0000 C   0  0  0  0  0  0  0  0  0  0  0  0
    3.7500   -6.4952    0.0000 O   0  0  0  0  0  0  0  0  0  0  0  0
    3.7500   -9.0933    0.0000 N   0  0  0  0  0  0  0  0  0  0  0  0
    5.2500   -9.0933    0.0000 C   0  0  0  0  0  0  0  0  0  0  0  0
    6.0000  -10.3923    0.0000 C   0  0  0  0  0  0  0  0  0  0  0  0
    5.2500  -11.6913    0.0000 C   0  0  0  0  0  0  0  0  0  0  0  0
    6.0000  -12.9904    0.0000 C   0  0  0  0  0  0  0  0  0  0  0  0
    3.7500  -11.6913    0.0000 C   0  0  0  0  0  0  0  0  0  0  0  0
    6.0000   -7.7942    0.0000 C   0  0  0  0  0  0  0  0  0  0  0  0
    5.2500   -6.4952    0.0000 O   0  0  0  0  0  0  0  0  0  0  0  0
    7.5000   -7.7942    0.0000 N   0  0  0  0  0  0  0  0  0  0  0  0
    8.3817   -9.0078    0.0000 C   0  0  0  0  0  0  0  0  0  0  0  0
    9.8083   -8.5442    0.0000 C   0  0  0  0  0  0  0  0  0  0  0  0
    9.8083   -7.0442    0.0000 C   0  0  0  0  0  0  0  0  0  0  0  0
    8.3817   -6.5807    0.0000 C   0  0  0  0  0  0  0  0  0  0  0  0
    7.9182   -5.1541    0.0000 C   0  0  0  0  0  0  0  0  0  0  0  0
    6.4509   -4.8423    0.0000 O   0  0  0  0  0  0  0  0  0  0  0  0
    8.9218   -4.0394    0.0000 N   0  0  0  0  0  0  0  0  0  0  0  0
    8.4583   -2.6128    0.0000 C   0  0  0  0  0  0  0  0  0  0  0  0
    9.4620   -1.4981    0.0000 C   0  0  0  0  0  0  0  0  0  0  0  0
    8.9985   -0.0715    0.0000 C   0  0  0  0  0  0  0  0  0  0  0  0
    8.5350    1.3551    0.0000 C   0  0  0  0  0  0  0  0  0  0  0  0
    6.9911   -2.3009    0.0000 C   0  0  0  0  0  0  0  0  0  0  0  0
    5.9874   -3.4157    0.0000 O   0  0  0  0  0  0  0  0  0  0  0  0
    6.5276   -0.8744    0.0000 O   0  0  0  0  0  0  0  0  0  0  0  0
  2  1  1  1
  2  3  1  0
  3  4  1  0
  4  5  2  0
  5  6  1  0
  6  7  2  0
  7  8  1  0
  8  9  2  0
  2 10  1  0
 10 11  2  0
 10 12  1  0
 12 13  1  0
 13 14  1  6
 14 15  1  0
 15 16  1  0
 15 17  1  0
 13 18  1  0
 18 19  2  0
 18 20  1  0
 20 21  1  0
 21 22  1  6
 22 23  1  0
 23 24  1  0
 23 25  1  0
 21 26  1  0
 26 27  2  0
 26 28  1  0
 28 29  1  0
 29 30  1  0
 30 31  1  0
 31 32  1  0
 32 33  1  6
 33 34  2  0
 33 35  1  0
 35 36  1  0
 36 37  1  6
 37 38  1  0
 38 39  3  0
 36 40  1  0
 40 41  2  0
 40 42  1  0
  9  4  1  0
 32 28  1  0
M  END
$$$$

     RDKit          2D

 42 43  0  0  0  0  0  0  0  0999 V2000
   -0.7500   -3.8971    0.0000 N   0  0  0  0  0  0  0  0  0  0  0  0
    0.7500   -3.8971    0.0000 C   0  0  0  0  0  0  0  0  0  0  0  0
    1.5000   -2.5981    0.0000 C   0  0  0  0  0  0  0  0  0  0  0  0
    0.7500   -1.2990    0.0000 C   0  0  0  0  0  0  0  0  0  0  0  0
    1.5000    0.0000    0.0000 C   0  0  0  0  0  0  0  0  0  0  0  0
    0.7500    1.2990    0.0000 C   0  0  0  0  0  0  0  0  0  0  0  0
   -0.7500    1.2990    0.0000 C   0  0  0  0  0  0  0  0  0  0  0  0
   -1.5000    0.0000    0.0000 C   0  0  0  0  0  0  0  0  0  0  0  0
   -0.7500   -1.2990    0.0000 C   0  0  0  0  0  0  0  0  0  0  0  0
    1.5000   -5.1962    0.0000 C   0  0  0  0  0  0  0  0  0  0  0  0
    3.0000   -5.1962    0.0000 O   0  0  0  0  0  0  0  0  0  0  0  0
    0.7500   -6.4952    0.0000 N   0  0  0  0  0  0  0  0  0  0  0  0
    1.5000   -7.7942    0.0000 C   0  0  0  0  0  0  0  0  0  0  0  0
    0.7500   -9.0933    0.0000 C   0  0  0  0  0  0  0  0  0  0  0  0
    1.5000  -10.3923    0.0000 C   0  0  0  0  0  0  0  0  0  0  0  0
    0.7500  -11.6913    0.0000 C   0  0  0  0  0  0  0  0  0  0  0  0
    3.0000  -10.3923    0.0000 C   0  0  0  0  0  0  0  0  0  0  0  0
    3.0000   -7.7942    0.0000 C   0  0  0  0  0  0  0  0  0  0  0  0
    3.7500   -6.4952    0.0000 O   0  0  0  0  0  0  0  0  0  0  0  0
    3.7500   -9.0933    0.0000 N   0  0  0  0  0  0  0  0  0  0  0  0
    5.2500   -9.0933    0.0000 C   0  0  0  0  0  0  0  0  0  0  0  0
    6.0000  -10.3923    0.0000 C   0  0  0  0  0  0  0  0  0  0  0  0
    5.2500  -11.6913    0.0000 C   0  0  0  0  0  0  0  0  0  0  0  0
    6.0000  -12.9904    0.0000 C   0  0  0  0  0  0  0  0  0  0  0  0
    3.7500  -11.6913    0.0000 C   0  0  0  0  0  0  0  0  0  0  0  0
    6.0000   -7.7942    0.0000 C   0  0  0  0  0  0  0  0  0  0  0  0
    5.2500   -6.4952    0.0000 O   0  0  0  0  0  0  0  0  0  0  0  0
    7.5000   -7.7942    0.0000 N   0  0  0  0  0  0  0  0  0  0  0  0
    8.3817   -9.0078    0.0000 C   0  0  0  0  0  0  0  0  0  0  0  0
    9.8083   -8.5442    0.0000 C   0  0  0  0  0  0  0  0  0  0  0  0
    9.8083   -7.0442    0.0000 C   0  0  0  0  0  0  0  0  0  0  0  0
    8.3817   -6.5807    0.0000 C   0  0  0  0  0  0  0  0  0  0  0  0
    7.9182   -5.1541    0.0000 C   0  0  0  0  0  0  0  0  0  0  0  0
    6.4509   -4.8423    0.0000 O   0  0  0  0  0  0  0  0  0  0  0  0
    8.9218   -4.0394    0.0000 N   0  0  0  0  0  0  0  0  0  0  0  0
    8.4583   -2.6128    0.0000 C   0  0  0  0  0  0  0  0  0  0  0  0
    9.4620   -1.4981    0.0000 C   0  0  0  0  0  0  0  0  0  0  0  0
    8.9985   -0.0715    0.0000 C   0  0  0  0  0  0  0  0  0  0  0  0
    8.5350    1.3551    0.0000 C   0  0  0  0  0  0  0  0  0  0  0  0
    6.9911   -2.3009    0.0000 C   0  0  0  0  0  0  0  0  0  0  0  0
    5.9874   -3.4157    0.0000 O   0  0  0  0  0  0  0  0  0  0  0  0
    6.5276   -0.8744    0.0000 O   0  0  0  0  0  0  0  0  0  0  0  0
  2  1  1  6
  2  3  1  0
  3  4  1  0
  4  5  2  0
  5  6  1  0
  6  7  2  0
  7  8  1  0
  8  9  2  0
  2 10  1  0
 10 11  2  0
 10 12  1  0
 12 13  1  0
 13 14  1  6
 14 15  1  0
 15 16  1  0
 15 17  1  0
 13 18  1  0
 18 19  2  0
 18 20  1  0
 20 21  1  0
 21 22  1  6
 22 23  1  0
 23 24  1  0
 23 25  1  0
 21 26  1  0
 26 27  2  0
 26 28  1  0
 28 29  1  0
 29 30  1  0
 30 31  1  0
 31 32  1  0
 32 33  1  6
 33 34  2  0
 33 35  1  0
 35 36  1  0
 36 37  1  6
 37 38  1  0
 38 39  3  0
 36 40  1  0
 40 41  2  0
 40 42  1  0
  9  4  1  0
 32 28  1  0
M  END
$$$$

     RDKit          2D

 43 44  0  0  0  0  0  0  0  0999 V2000
   -0.7500   -3.8971    0.0000 N   0  0  0  0  0  0  0  0  0  0  0  0
   -1.5000   -5.1962    0.0000 C   0  0  0  0  0  0  0  0  0  0  0  0
    0.7500   -3.8971    0.0000 C   0  0  0  0  0  0  0  0  0  0  0  0
    1.5000   -2.5981    0.0000 C   0  0  0  0  0  0  0  0  0  0  0  0
    0.7500   -1.2990    0.0000 C   0  0  0  0  0  0  0  0  0  0  0  0
    1.5000    0.0000    0.0000 C   0  0  0  0  0  0  0  0  0  0  0  0
    0.7500    1.2990    0.0000 C   0  0  0  0  0  0  0  0  0  0  0  0
   -0.7500    1.2990    0.0000 C   0  0  0  0  0  0  0  0  0  0  0  0
   -1.5000    0.0000    0.0000 C   0  0  0  0  0  0  0  0  0  0  0  0
   -0.7500   -1.2990    0.0000 C   0  0  0  0  0  0  0  0  0  0  0  0
    1.5000   -5.1962    0.0000 C   0  0  0  0  0  0  0  0  0  0  0  0
    3.0000   -5.1962    0.0000 O   0  0  0  0  0  0  0  0  0  0  0  0
    0.7500   -6.4952    0.0000 N   0  0  0  0  0  0  0  0  0  0  0  0
    1.5000   -7.7942    0.0000 C   0  0  0  0  0  0  0  0  0  0  0  0
    0.7500   -9.0933    0.0000 C   0  0  0  0  0  0  0  0  0  0  0  0
    1.5000  -10.3923    0.0000 C   0  0  0  0  0  0  0  0  0  0  0  0
    0.7500  -11.6913    0.0000 C   0  0  0  0  0  0  0  0  0  0  0  0
    3.0000  -10.3923    0.0000 C   0  0  0  0  0  0  0  0  0  0  0  0
    3.0000   -7.7942    0.0000 C   0  0  0  0  0  0  0  0  0  0  0  0
    3.7500   -6.4952    0.0000 O   0  0  0  0  0  0  0  0  0  0  0  0
    3.7500   -9.0933    0.0000 N   0  0  0  0  0  0  0  0  0  0  0  0
    5.2500   -9.0933    0.0000 C   0  0  0  0  0  0  0  0  0  0  0  0
    6.0000  -10.3923    0.0000 C   0  0  0  0  0  0  0  0  0  0  0  0
    5.2500  -11.6913    0.0000 C   0  0  0  0  0  0  0  0  0  0  0  0
    6.0000  -12.9904    0.0000 C   0  0  0  0  0  0  0  0  0  0  0  0
    3.7500  -11.6913    0.0000 C   0  0  0  0  0  0  0  0  0  0  0  0
    6.0000   -7.7942    0.0000 C   0  0  0  0  0  0  0  0  0  0  0  0
    5.2500   -6.4952    0.0000 O   0  0  0  0  0  0  0  0  0  0  0  0
    7.5000   -7.7942    0.0000 N   0  0  0  0  0  0  0  0  0  0  0  0
    8.3817   -9.0078    0.0000 C   0  0  0  0  0  0  0  0  0  0  0  0
    9.8083   -8.5442    0.0000 C   0  0  0  0  0  0  0  0  0  0  0  0
    9.8083   -7.0442    0.0000 C   0  0  0  0  0  0  0  0  0  0  0  0
    8.3817   -6.5807    0.0000 C   0  0  0  0  0  0  0  0  0  0  0  0
    7.9182   -5.1541    0.0000 C   0  0  0  0  0  0  0  0  0  0  0  0
    6.4509   -4.8423    0.0000 O   0  0  0  0  0  0  0  0  0  0  0  0
    8.9218   -4.0394    0.0000 N   0  0  0  0  0  0  0  0  0  0  0  0
    8.4583   -2.6128    0.0000 C   0  0  0  0  0  0  0  0  0  0  0  0
    9.4620   -1.4981    0.0000 C   0  0  0  0  0  0  0  0  0  0  0  0
    8.9985   -0.0715    0.0000 C   0  0  0  0  0  0  0  0  0  0  0  0
    8.5350    1.3551    0.0000 C   0  0  0  0  0  0  0  0  0  0  0  0
    6.9911   -2.3009    0.0000 C   0  0  0  0  0  0  0  0  0  0  0  0
    5.9874   -3.4157    0.0000 O   0  0  0  0  0  0  0  0  0  0  0  0
    6.5276   -0.8744    0.0000 O   0  0  0  0  0  0  0  0  0  0  0  0
  1  2  1  0
  1  3  1  0
  3  4  1  1
  4  5  1  0
  5  6  2  0
  6  7  1  0
  7  8  2  0
  8  9  1  0
  9 10  2  0
  3 11  1  0
 11 12  2  0
 11 13  1  0
 13 14  1  0
 14 15  1  6
 15 16  1  0
 16 17  1  0
 16 18  1  0
 14 19  1  0
 19 20  2  0
 19 21  1  0
 21 22  1  0
 22 23  1  6
 23 24  1  0
 24 25  1  0
 24 26  1  0
 22 27  1  0
 27 28  2  0
 27 29  1  0
 29 30  1  0
 30 31  1  0
 31 32  1  0
 32 33  1  0
 33 34  1  6
 34 35  2  0
 34 36  1  0
 36 37  1  0
 37 38  1  6
 38 39  1  0
 39 40  3  0
 37 41  1  0
 41 42  2  0
 41 43  1  0
 10  5  1  0
 33 29  1  0
M  END
$$$$

     RDKit          2D

 43 44  0  0  0  0  0  0  0  0999 V2000
   -0.7500   -3.8971    0.0000 N   0  0  0  0  0  0  0  0  0  0  0  0
   -1.5000   -5.1962    0.0000 C   0  0  0  0  0  0  0  0  0  0  0  0
    0.7500   -3.8971    0.0000 C   0  0  0  0  0  0  0  0  0  0  0  0
    1.5000   -2.5981    0.0000 C   0  0  0  0  0  0  0  0  0  0  0  0
    0.7500   -1.2990    0.0000 C   0  0  0  0  0  0  0  0  0  0  0  0
    1.5000    0.0000    0.0000 C   0  0  0  0  0  0  0  0  0  0  0  0
    0.7500    1.2990    0.0000 C   0  0  0  0  0  0  0  0  0  0  0  0
   -0.7500    1.2990    0.0000 C   0  0  0  0  0  0  0  0  0  0  0  0
   -1.5000    0.0000    0.0000 C   0  0  0  0  0  0  0  0  0  0  0  0
   -0.7500   -1.2990    0.0000 C   0  0  0  0  0  0  0  0  0  0  0  0
    1.5000   -5.1962    0.0000 C   0  0  0  0  0  0  0  0  0  0  0  0
    3.0000   -5.1962    0.0000 O   0  0  0  0  0  0  0  0  0  0  0  0
    0.7500   -6.4952    0.0000 N   0  0  0  0  0  0  0  0  0  0  0  0
    1.5000   -7.7942    0.0000 C   0  0  0  0  0  0  0  0  0  0  0  0
    0.7500   -9.0933    0.0000 C   0  0  0  0  0  0  0  0  0  0  0  0
    1.5000  -10.3923    0.0000 C   0  0  0  0  0  0  0  0  0  0  0  0
    0.7500  -11.6913    0.0000 C   0  0  0  0  0  0  0  0  0  0  0  0
    3.0000  -10.3923    0.0000 C   0  0  0  0  0  0  0  0  0  0  0  0
    3.0000   -7.7942    0.0000 C   0  0  0  0  0  0  0  0  0  0  0  0
    3.7500   -6.4952    0.0000 O   0  0  0  0  0  0  0  0  0  0  0  0
    3.7500   -9.0933    0.0000 N   0  0  0  0  0  0  0  0  0  0  0  0
    5.2500   -9.0933    0.0000 C   0  0  0  0  0  0  0  0  0  0  0  0
    6.0000  -10.3923    0.0000 C   0  0  0  0  0  0  0  0  0  0  0  0
    5.2500  -11.6913    0.0000 C   0  0  0  0  0  0  0  0  0  0  0  0
    6.0000  -12.9904    0.0000 C   0  0  0  0  0  0  0  0  0  0  0  0
    3.7500  -11.6913    0.0000 C   0  0  0  0  0  0  0  0  0  0  0  0
    6.0000   -7.7942    0.0000 C   0  0  0  0  0  0  0  0  0  0  0  0
    5.2500   -6.4952    0.0000 O   0  0  0  0  0  0  0  0  0  0  0  0
    7.5000   -7.7942    0.0000 N   0  0  0  0  0  0  0  0  0  0  0  0
    8.3817   -9.0078    0.0000 C   0  0  0  0  0  0  0  0  0  0  0  0
    9.8083   -8.5442    0.0000 C   0  0  0  0  0  0  0  0  0  0  0  0
    9.8083   -7.0442    0.0000 C   0  0  0  0  0  0  0  0  0  0  0  0
    8.3817   -6.5807    0.0000 C   0  0  0  0  0  0  0  0  0  0  0  0
    7.9182   -5.1541    0.0000 C   0  0  0  0  0  0  0  0  0  0  0  0
    6.4509   -4.8423    0.0000 O   0  0  0  0  0  0  0  0  0  0  0  0
    8.9218   -4.0394    0.0000 N   0  0  0  0  0  0  0  0  0  0  0  0
    8.4583   -2.6128    0.0000 C   0  0  0  0  0  0  0  0  0  0  0  0
    9.4620   -1.4981    0.0000 C   0  0  0  0  0  0  0  0  0  0  0  0
    8.9985   -0.0715    0.0000 C   0  0  0  0  0  0  0  0  0  0  0  0
    8.5350    1.3551    0.0000 C   0  0  0  0  0  0  0  0  0  0  0  0
    6.9911   -2.3009    0.0000 C   0  0  0  0  0  0  0  0  0  0  0  0
    5.9874   -3.4157    0.0000 O   0  0  0  0  0  0  0  0  0  0  0  0
    6.5276   -0.8744    0.0000 O   0  0  0  0  0  0  0  0  0  0  0  0
  1  2  1  0
  1  3  1  0
  3  4  1  6
  4  5  1  0
  5  6  2  0
  6  7  1  0
  7  8  2  0
  8  9  1  0
  9 10  2  0
  3 11  1  0
 11 12  2  0
 11 13  1  0
 13 14  1  0
 14 15  1  6
 15 16  1  0
 16 17  1  0
 16 18  1  0
 14 19  1  0
 19 20  2  0
 19 21  1  0
 21 22  1  0
 22 23  1  6
 23 24  1  0
 24 25  1  0
 24 26  1  0
 22 27  1  0
 27 28  2  0
 27 29  1  0
 29 30  1  0
 30 31  1  0
 31 32  1  0
 32 33  1  0
 33 34  1  6
 34 35  2  0
 34 36  1  0
 36 37  1  0
 37 38  1  6
 38 39  1  0
 39 40  3  0
 37 41  1  0
 41 42  2  0
 41 43  1  0
 10  5  1  0
 33 29  1  0
M  END
$$$$

     RDKit          2D

 38 38  0  0  0  0  0  0  0  0999 V2000
   -1.7240    5.1962    0.0000 N   0  0  0  0  0  0  0  0  0  0  0  0
   -0.9740    6.4952    0.0000 C   0  0  0  0  0  0  0  0  0  0  0  0
   -1.7240    7.7942    0.0000 C   0  0  0  0  0  0  0  0  0  0  0  0
   -0.9740    9.0933    0.0000 O   0  0  0  0  0  0  0  0  0  0  0  0
   -3.2240    7.7942    0.0000 C   0  0  0  0  0  0  0  0  0  0  0  0
    0.5260    6.4952    0.0000 C   0  0  0  0  0  0  0  0  0  0  0  0
    1.2760    7.7942    0.0000 O   0  0  0  0  0  0  0  0  0  0  0  0
    1.2760    5.1962    0.0000 N   0  0  0  0  0  0  0  0  0  0  0  0
    2.7760    5.1962    0.0000 C   0  0  0  0  0  0  0  0  0  0  0  0
    3.5260    6.4952    0.0000 C   0  0  0  0  0  0  0  0  0  0  0  0
    5.0260    6.4952    0.0000 C   0  0  0  0  0  0  0  0  0  0  0  0
    5.7760    7.7942    0.0000 C   0  0  0  0  0  0  0  0  0  0  0  0
    5.7760    5.1962    0.0000 C   0  0  0  0  0  0  0  0  0  0  0  0
    3.5260    3.8971    0.0000 C   0  0  0  0  0  0  0  0  0  0  0  0
    5.0260    3.8971    0.0000 O   0  0  0  0  0  0  0  0  0  0  0  0
    2.7760    2.5981    0.0000 N   0  0  0  0  0  0  0  0  0  0  0  0
    3.5260    1.2990    0.0000 C   0  0  0  0  0  0  0  0  0  0  0  0
    5.0260    1.2990    0.0000 C   0  0  0  0  0  0  0  0  0  0  0  0
    5.7760    0.0000    0.0000 C   0  0  0  0  0  0  0  0  0  0  0  0
    7.2760    0.0000    0.0000 C   0  0  0  0  0  0  0  0  0  0  0  0
    5.0260   -1.2990    0.0000 C   0  0  0  0  0  0  0  0  0  0  0  0
    2.7760    0.0000    0.0000 C   0  0  0  0  0  0  0  0  0  0  0  0
    3.5260   -1.2990    0.0000 O   0  0  0  0  0  0  0  0  0  0  0  0
    1.2760    0.0000    0.0000 N   0  0  0  0  0  0  0  0  0  0  0  0
    0.3943    1.2135    0.0000 C   0  0  0  0  0  0  0  0  0  0  0  0
   -1.0323    0.7500    0.0000 C   0  0  0  0  0  0  0  0  0  0  0  0
   -1.0323   -0.7500    0.0000 C   0  0  0  0  0  0  0  0  0  0  0  0
    0.3943   -1.2135    0.0000 C   0  0  0  0  0  0  0  0  0  0  0  0
    0.8578   -2.6401    0.0000 C   0  0  0  0  0  0  0  0  0  0  0  0
    2.3250   -2.9520    0.0000 O   0  0  0  0  0  0  0  0  0  0  0  0
   -0.1459   -3.7548    0.0000 N   0  0  0  0  0  0  0  0  0  0  0  0
    0.3177   -5.1814    0.0000 C   0  0  0  0  0  0  0  0  0  0  0  0
   -0.6860   -6.2961    0.0000 C   0  0  0  0  0  0  0  0  0  0  0  0
   -0.2225   -7.7227    0.0000 C   0  0  0  0  0  0  0  0  0  0  0  0
    0.2410   -9.1493    0.0000 C   0  0  0  0  0  0  0  0  0  0  0  0
    1.7849   -5.4933    0.0000 C   0  0  0  0  0  0  0  0  0  0  0  0
    2.7886   -4.3786    0.0000 O   0  0  0  0  0  0  0  0  0  0  0  0
    2.2484   -6.9199    0.0000 O   0  0  0  0  0  0  0  0  0  0  0  0
  2  1  1  1
  2  3  1  0
  3  4  1  0
  3  5  1  1
  2  6  1  0
  6  7  2  0
  6  8  1  0
  8  9  1  0
  9 10  1  1
 10 11  1  0
 11 12  1  0
 11 13  1  0
  9 14  1  0
 14 15  2  0
 14 16  1  0
 16 17  1  0
 17 18  1  1
 18 19  1  0
 19 20  1  0
 19 21  1  0
 17 22  1  0
 22 23  2  0
 22 24  1  0
 24 25  1  0
 25 26  1  0
 26 27  1  0
 27 28  1  0
 28 29  1  6
 29 30  2  0
 29 31  1  0
 31 32  1  0
 32 33  1  6
 33 34  1  0
 34 35  3  0
 32 36  1  0
 36 37  2  0
 36 38  1  0
 28 24  1  0
M  END
$$$$

     RDKit          2D

 38 38  0  0  0  0  0  0  0  0999 V2000
   -1.7240    5.1962    0.0000 N   0  0  0  0  0  0  0  0  0  0  0  0
   -0.9740    6.4952    0.0000 C   0  0  0  0  0  0  0  0  0  0  0  0
   -1.7240    7.7942    0.0000 C   0  0  0  0  0  0  0  0  0  0  0  0
   -0.9740    9.0933    0.0000 O   0  0  0  0  0  0  0  0  0  0  0  0
   -3.2240    7.7942    0.0000 C   0  0  0  0  0  0  0  0  0  0  0  0
    0.5260    6.4952    0.0000 C   0  0  0  0  0  0  0  0  0  0  0  0
    1.2760    7.7942    0.0000 O   0  0  0  0  0  0  0  0  0  0  0  0
    1.2760    5.1962    0.0000 N   0  0  0  0  0  0  0  0  0  0  0  0
    2.7760    5.1962    0.0000 C   0  0  0  0  0  0  0  0  0  0  0  0
    3.5260    6.4952    0.0000 C   0  0  0  0  0  0  0  0  0  0  0  0
    5.0260    6.4952    0.0000 C   0  0  0  0  0  0  0  0  0  0  0  0
    5.7760    7.7942    0.0000 C   0  0  0  0  0  0  0  0  0  0  0  0
    5.7760    5.1962    0.0000 C   0  0  0  0  0  0  0  0  0  0  0  0
    3.5260    3.8971    0.0000 C   0  0  0  0  0  0  0  0  0  0  0  0
    5.0260    3.8971    0.0000 O   0  0  0  0  0  0  0  0  0  0  0  0
    2.7760    2.5981    0.0000 N   0  0  0  0  0  0  0  0  0  0  0  0
    3.5260    1.2990    0.0000 C   0  0  0  0  0  0  0  0  0  0  0  0
    5.0260    1.2990    0.0000 C   0  0  0  0  0  0  0  0  0  0  0  0
    5.7760    0.0000    0.0000 C   0  0  0  0  0  0  0  0  0  0  0  0
    7.2760    0.0000    0.0000 C   0  0  0  0  0  0  0  0  0  0  0  0
    5.0260   -1.2990    0.0000 C   0  0  0  0  0  0  0  0  0  0  0  0
    2.7760    0.0000    0.0000 C   0  0  0  0  0  0  0  0  0  0  0  0
    3.5260   -1.2990    0.0000 O   0  0  0  0  0  0  0  0  0  0  0  0
    1.2760    0.0000    0.0000 N   0  0  0  0  0  0  0  0  0  0  0  0
    0.3943    1.2135    0.0000 C   0  0  0  0  0  0  0  0  0  0  0  0
   -1.0323    0.7500    0.0000 C   0  0  0  0  0  0  0  0  0  0  0  0
   -1.0323   -0.7500    0.0000 C   0  0  0  0  0  0  0  0  0  0  0  0
    0.3943   -1.2135    0.0000 C   0  0  0  0  0  0  0  0  0  0  0  0
    0.8578   -2.6401    0.0000 C   0  0  0  0  0  0  0  0  0  0  0  0
    2.3250   -2.9520    0.0000 O   0  0  0  0  0  0  0  0  0  0  0  0
   -0.1459   -3.7548    0.0000 N   0  0  0  0  0  0  0  0  0  0  0  0
    0.3177   -5.1814    0.0000 C   0  0  0  0  0  0  0  0  0  0  0  0
   -0.6860   -6.2961    0.0000 C   0  0  0  0  0  0  0  0  0  0  0  0
   -0.2225   -7.7227    0.0000 C   0  0  0  0  0  0  0  0  0  0  0  0
    0.2410   -9.1493    0.0000 C   0  0  0  0  0  0  0  0  0  0  0  0
    1.7849   -5.4933    0.0000 C   0  0  0  0  0  0  0  0  0  0  0  0
    2.7886   -4.3786    0.0000 O   0  0  0  0  0  0  0  0  0  0  0  0
    2.2484   -6.9199    0.0000 O   0  0  0  0  0  0  0  0  0  0  0  0
  2  1  1  6
  2  3  1  0
  3  4  1  0
  3  5  1  1
  2  6  1  0
  6  7  2  0
  6  8  1  0
  8  9  1  0
  9 10  1  1
 10 11  1  0
 11 12  1  0
 11 13  1  0
  9 14  1  0
 14 15  2  0
 14 16  1  0
 16 17  1  0
 17 18  1  1
 18 19  1  0
 19 20  1  0
 19 21  1  0
 17 22  1  0
 22 23  2  0
 22 24  1  0
 24 25  1  0
 25 26  1  0
 26 27  1  0
 27 28  1  0
 28 29  1  6
 29 30  2  0
 29 31  1  0
 31 32  1  0
 32 33  1  6
 33 34  1  0
 34 35  3  0
 32 36  1  0
 36 37  2  0
 36 38  1  0
 28 24  1  0
M  END
$$$$

     RDKit          2D

 39 39  0  0  0  0  0  0  0  0999 V2000
   -1.7240    5.1962    0.0000 N   0  0  0  0  0  0  0  0  0  0  0  0
   -3.2240    5.1962    0.0000 C   0  0  0  0  0  0  0  0  0  0  0  0
   -0.9740    6.4952    0.0000 C   0  0  0  0  0  0  0  0  0  0  0  0
   -1.7240    7.7942    0.0000 C   0  0  0  0  0  0  0  0  0  0  0  0
   -0.9740    9.0933    0.0000 O   0  0  0  0  0  0  0  0  0  0  0  0
   -3.2240    7.7942    0.0000 C   0  0  0  0  0  0  0  0  0  0  0  0
    0.5260    6.4952    0.0000 C   0  0  0  0  0  0  0  0  0  0  0  0
    1.2760    7.7942    0.0000 O   0  0  0  0  0  0  0  0  0  0  0  0
    1.2760    5.1962    0.0000 N   0  0  0  0  0  0  0  0  0  0  0  0
    2.7760    5.1962    0.0000 C   0  0  0  0  0  0  0  0  0  0  0  0
    3.5260    6.4952    0.0000 C   0  0  0  0  0  0  0  0  0  0  0  0
    5.0260    6.4952    0.0000 C   0  0  0  0  0  0  0  0  0  0  0  0
    5.7760    7.7942    0.0000 C   0  0  0  0  0  0  0  0  0  0  0  0
    5.7760    5.1962    0.0000 C   0  0  0  0  0  0  0  0  0  0  0  0
    3.5260    3.8971    0.0000 C   0  0  0  0  0  0  0  0  0  0  0  0
    5.0260    3.8971    0.0000 O   0  0  0  0  0  0  0  0  0  0  0  0
    2.7760    2.5981    0.0000 N   0  0  0  0  0  0  0  0  0  0  0  0
    3.5260    1.2990    0.0000 C   0  0  0  0  0  0  0  0  0  0  0  0
    5.0260    1.2990    0.0000 C   0  0  0  0  0  0  0  0  0  0  0  0
    5.7760    0.0000    0.0000 C   0  0  0  0  0  0  0  0  0  0  0  0
    5.0260   -1.2990    0.0000 C   0  0  0  0  0  0  0  0  0  0  0  0
    7.2760    0.0000    0.0000 C   0  0  0  0  0  0  0  0  0  0  0  0
    2.7760    0.0000    0.0000 C   0  0  0  0  0  0  0  0  0  0  0  0
    3.5260   -1.2990    0.0000 O   0  0  0  0  0  0  0  0  0  0  0  0
    1.2760    0.0000    0.0000 N   0  0  0  0  0  0  0  0  0  0  0  0
    0.3943    1.2135    0.0000 C   0  0  0  0  0  0  0  0  0  0  0  0
   -1.0323    0.7500    0.0000 C   0  0  0  0  0  0  0  0  0  0  0  0
   -1.0323   -0.7500    0.0000 C   0  0  0  0  0  0  0  0  0  0  0  0
    0.3943   -1.2135    0.0000 C   0  0  0  0  0  0  0  0  0  0  0  0
    0.8578   -2.6401    0.0000 C   0  0  0  0  0  0  0  0  0  0  0  0
    2.3250   -2.9520    0.0000 O   0  0  0  0  0  0  0  0  0  0  0  0
   -0.1459   -3.7548    0.0000 N   0  0  0  0  0  0  0  0  0  0  0  0
    0.3177   -5.1814    0.0000 C   0  0  0  0  0  0  0  0  0  0  0  0
   -0.6860   -6.2961    0.0000 C   0  0  0  0  0  0  0  0  0  0  0  0
   -0.2225   -7.7227    0.0000 C   0  0  0  0  0  0  0  0  0  0  0  0
    0.2410   -9.1493    0.0000 C   0  0  0  0  0  0  0  0  0  0  0  0
    1.7849   -5.4933    0.0000 C   0  0  0  0  0  0  0  0  0  0  0  0
    2.7886   -4.3786    0.0000 O   0  0  0  0  0  0  0  0  0  0  0  0
    2.2484   -6.9199    0.0000 O   0  0  0  0  0  0  0  0  0  0  0  0
  1  2  1  0
  3  1  1  1
  3  4  1  0
  4  5  1  0
  4  6  1  1
  3  7  1  0
  7  8  2  0
  7  9  1  0
  9 10  1  0
 10 11  1  1
 11 12  1  0
 12 13  1  0
 12 14  1  0
 10 15  1  0
 15 16  2  0
 15 17  1  0
 17 18  1  0
 18 19  1  1
 19 20  1  0
 20 21  1  0
 20 22  1  0
 18 23  1  0
 23 24  2  0
 23 25  1  0
 25 26  1  0
 26 27  1  0
 27 28  1  0
 28 29  1  0
 29 30  1  6
 30 31  2  0
 30 32  1  0
 32 33  1  0
 33 34  1  6
 34 35  1  0
 35 36  3  0
 33 37  1  0
 37 38  2  0
 37 39  1  0
 29 25  1  0
M  END
$$$$

     RDKit          2D

 39 39  0  0  0  0  0  0  0  0999 V2000
   -1.7240    5.1962    0.0000 N   0  0  0  0  0  0  0  0  0  0  0  0
   -3.2240    5.1962    0.0000 C   0  0  0  0  0  0  0  0  0  0  0  0
   -0.9740    6.4952    0.0000 C   0  0  0  0  0  0  0  0  0  0  0  0
   -1.7240    7.7942    0.0000 C   0  0  0  0  0  0  0  0  0  0  0  0
   -0.9740    9.0933    0.0000 O   0  0  0  0  0  0  0  0  0  0  0  0
   -3.2240    7.7942    0.0000 C   0  0  0  0  0  0  0  0  0  0  0  0
    0.5260    6.4952    0.0000 C   0  0  0  0  0  0  0  0  0  0  0  0
    1.2760    7.7942    0.0000 O   0  0  0  0  0  0  0  0  0  0  0  0
    1.2760    5.1962    0.0000 N   0  0  0  0  0  0  0  0  0  0  0  0
    2.7760    5.1962    0.0000 C   0  0  0  0  0  0  0  0  0  0  0  0
    3.5260    6.4952    0.0000 C   0  0  0  0  0  0  0  0  0  0  0  0
    5.0260    6.4952    0.0000 C   0  0  0  0  0  0  0  0  0  0  0  0
    5.7760    7.7942    0.0000 C   0  0  0  0  0  0  0  0  0  0  0  0
    5.7760    5.1962    0.0000 C   0  0  0  0  0  0  0  0  0  0  0  0
    3.5260    3.8971    0.0000 C   0  0  0  0  0  0  0  0  0  0  0  0
    5.0260    3.8971    0.0000 O   0  0  0  0  0  0  0  0  0  0  0  0
    2.7760    2.5981    0.0000 N   0  0  0  0  0  0  0  0  0  0  0  0
    3.5260    1.2990    0.0000 C   0  0  0  0  0  0  0  0  0  0  0  0
    5.0260    1.2990    0.0000 C   0  0  0  0  0  0  0  0  0  0  0  0
    5.7760    0.0000    0.0000 C   0  0  0  0  0  0  0  0  0  0  0  0
    5.0260   -1.2990    0.0000 C   0  0  0  0  0  0  0  0  0  0  0  0
    7.2760    0.0000    0.0000 C   0  0  0  0  0  0  0  0  0  0  0  0
    2.7760    0.0000    0.0000 C   0  0  0  0  0  0  0  0  0  0  0  0
    3.5260   -1.2990    0.0000 O   0  0  0  0  0  0  0  0  0  0  0  0
    1.2760    0.0000    0.0000 N   0  0  0  0  0  0  0  0  0  0  0  0
    0.3943    1.2135    0.0000 C   0  0  0  0  0  0  0  0  0  0  0  0
   -1.0323    0.7500    0.0000 C   0  0  0  0  0  0  0  0  0  0  0  0
   -1.0323   -0.7500    0.0000 C   0  0  0  0  0  0  0  0  0  0  0  0
    0.3943   -1.2135    0.0000 C   0  0  0  0  0  0  0  0  0  0  0  0
    0.8578   -2.6401    0.0000 C   0  0  0  0  0  0  0  0  0  0  0  0
    2.3250   -2.9520    0.0000 O   0  0  0  0  0  0  0  0  0  0  0  0
   -0.1459   -3.7548    0.0000 N   0  0  0  0  0  0  0  0  0  0  0  0
    0.3177   -5.1814    0.0000 C   0  0  0  0  0  0  0  0  0  0  0  0
   -0.6860   -6.2961    0.0000 C   0  0  0  0  0  0  0  0  0  0  0  0
   -0.2225   -7.7227    0.0000 C   0  0  0  0  0  0  0  0  0  0  0  0
    0.2410   -9.1493    0.0000 C   0  0  0  0  0  0  0  0  0  0  0  0
    1.7849   -5.4933    0.0000 C   0  0  0  0  0  0  0  0  0  0  0  0
    2.7886   -4.3786    0.0000 O   0  0  0  0  0  0  0  0  0  0  0  0
    2.2484   -6.9199    0.0000 O   0  0  0  0  0  0  0  0  0  0  0  0
  1  2  1  0
  3  1  1  6
  3  4  1  0
  4  5  1  0
  4  6  1  1
  3  7  1  0
  7  8  2  0
  7  9  1  0
  9 10  1  0
 10 11  1  1
 11 12  1  0
 12 13  1  0
 12 14  1  0
 10 15  1  0
 15 16  2  0
 15 17  1  0
 17 18  1  0
 18 19  1  1
 19 20  1  0
 20 21  1  0
 20 22  1  0
 18 23  1  0
 23 24  2  0
 23 25  1  0
 25 26  1  0
 26 27  1  0
 27 28  1  0
 28 29  1  0
 29 30  1  6
 30 31  2  0
 30 32  1  0
 32 33  1  0
 33 34  1  6
 34 35  1  0
 35 36  3  0
 33 37  1  0
 37 38  2  0
 37 39  1  0
 29 25  1  0
M  END
$$$$

     RDKit          2D

 39 39  0  0  0  0  0  0  0  0999 V2000
   -1.7240    7.7942    0.0000 N   0  0  0  0  0  0  0  0  0  0  0  0
   -3.2240    7.7942    0.0000 C   0  0  0  0  0  0  0  0  0  0  0  0
   -3.9740    9.0933    0.0000 C   0  0  0  0  0  0  0  0  0  0  0  0
   -5.4740    9.0933    0.0000 C   0  0  0  0  0  0  0  0  0  0  0  0
   -3.2240   10.3923    0.0000 C   0  0  0  0  0  0  0  0  0  0  0  0
   -0.9740    6.4952    0.0000 C   0  0  0  0  0  0  0  0  0  0  0  0
    0.5260    6.4952    0.0000 C   0  0  0  0  0  0  0  0  0  0  0  0
    1.2760    7.7942    0.0000 O   0  0  0  0  0  0  0  0  0  0  0  0
    1.2760    5.1962    0.0000 N   0  0  0  0  0  0  0  0  0  0  0  0
    2.7760    5.1962    0.0000 C   0  0  0  0  0  0  0  0  0  0  0  0
    3.5260    6.4952    0.0000 C   0  0  0  0  0  0  0  0  0  0  0  0
    5.0260    6.4952    0.0000 C   0  0  0  0  0  0  0  0  0  0  0  0
    5.7760    7.7942    0.0000 C   0  0  0  0  0  0  0  0  0  0  0  0
    5.7760    5.1962    0.0000 C   0  0  0  0  0  0  0  0  0  0  0  0
    3.5260    3.8971    0.0000 C   0  0  0  0  0  0  0  0  0  0  0  0
    5.0260    3.8971    0.0000 O   0  0  0  0  0  0  0  0  0  0  0  0
    2.7760    2.5981    0.0000 N   0  0  0  0  0  0  0  0  0  0  0  0
    3.5260    1.2990    0.0000 C   0  0  0  0  0  0  0  0  0  0  0  0
    5.0260    1.2990    0.0000 C   0  0  0  0  0  0  0  0  0  0  0  0
    5.7760    0.0000    0.0000 C   0  0  0  0  0  0  0  0  0  0  0  0
    7.2760    0.0000    0.0000 C   0  0  0  0  0  0  0  0  0  0  0  0
    5.0260   -1.2990    0.0000 C   0  0  0  0  0  0  0  0  0  0  0  0
    2.7760    0.0000    0.0000 C   0  0  0  0  0  0  0  0  0  0  0  0
    3.5260   -1.2990    0.0000 O   0  0  0  0  0  0  0  0  0  0  0  0
    1.2760    0.0000    0.0000 N   0  0  0  0  0  0  0  0  0  0  0  0
    0.3943    1.2135    0.0000 C   0  0  0  0  0  0  0  0  0  0  0  0
   -1.0323    0.7500    0.0000 C   0  0  0  0  0  0  0  0  0  0  0  0
   -1.0323   -0.7500    0.0000 C   0  0  0  0  0  0  0  0  0  0  0  0
    0.3943   -1.2135    0.0000 C   0  0  0  0  0  0  0  0  0  0  0  0
    0.8578   -2.6401    0.0000 C   0  0  0  0  0  0  0  0  0  0  0  0
    2.3250   -2.9520    0.0000 O   0  0  0  0  0  0  0  0  0  0  0  0
   -0.1459   -3.7548    0.0000 N   0  0  0  0  0  0  0  0  0  0  0  0
    0.3177   -5.1814    0.0000 C   0  0  0  0  0  0  0  0  0  0  0  0
   -0.6860   -6.2961    0.0000 C   0  0  0  0  0  0  0  0  0  0  0  0
   -0.2225   -7.7227    0.0000 C   0  0  0  0  0  0  0  0  0  0  0  0
    0.2410   -9.1493    0.0000 C   0  0  0  0  0  0  0  0  0  0  0  0
    1.7849   -5.4933    0.0000 C   0  0  0  0  0  0  0  0  0  0  0  0
    2.7886   -4.3786    0.0000 O   0  0  0  0  0  0  0  0  0  0  0  0
    2.2484   -6.9199    0.0000 O   0  0  0  0  0  0  0  0  0  0  0  0
  1  2  1  0
  2  3  1  0
  3  4  1  0
  3  5  1  0
  1  6  1  0
  6  7  1  0
  7  8  2  0
  7  9  1  0
  9 10  1  0
 10 11  1  1
 11 12  1  0
 12 13  1  0
 12 14  1  0
 10 15  1  0
 15 16  2  0
 15 17  1  0
 17 18  1  0
 18 19  1  1
 19 20  1  0
 20 21  1  0
 20 22  1  0
 18 23  1  0
 23 24  2  0
 23 25  1  0
 25 26  1  0
 26 27  1  0
 27 28  1  0
 28 29  1  0
 29 30  1  6
 30 31  2  0
 30 32  1  0
 32 33  1  0
 33 34  1  6
 34 35  1  0
 35 36  3  0
 33 37  1  0
 37 38  2  0
 37 39  1  0
 29 25  1  0
M  END
$$$$

     RDKit          2D

 42 42  0  0  0  0  0  0  0  0999 V2000
   -1.7240    7.7942    0.0000 N   0  0  0  0  0  0  0  0  0  0  0  0
   -3.2240    7.7942    0.0000 C   0  0  0  0  0  0  0  0  0  0  0  0
   -3.9740    9.0933    0.0000 C   0  0  0  0  0  0  0  0  0  0  0  0
   -5.4740    9.0933    0.0000 C   0  0  0  0  0  0  0  0  0  0  0  0
   -6.2240   10.3923    0.0000 O   0  0  0  0  0  0  0  0  0  0  0  0
   -7.7240   10.3923    0.0000 C   0  0  0  0  0  0  0  0  0  0  0  0
   -8.4740   11.6913    0.0000 C   0  0  0  0  0  0  0  0  0  0  0  0
   -8.4740    9.0933    0.0000 C   0  0  0  0  0  0  0  0  0  0  0  0
   -0.9740    6.4952    0.0000 C   0  0  0  0  0  0  0  0  0  0  0  0
    0.5260    6.4952    0.0000 C   0  0  0  0  0  0  0  0  0  0  0  0
    1.2760    7.7942    0.0000 O   0  0  0  0  0  0  0  0  0  0  0  0
    1.2760    5.1962    0.0000 N   0  0  0  0  0  0  0  0  0  0  0  0
    2.7760    5.1962    0.0000 C   0  0  0  0  0  0  0  0  0  0  0  0
    3.5260    6.4952    0.0000 C   0  0  0  0  0  0  0  0  0  0  0  0
    5.0260    6.4952    0.0000 C   0  0  0  0  0  0  0  0  0  0  0  0
    5.7760    7.7942    0.0000 C   0  0  0  0  0  0  0  0  0  0  0  0
    5.7760    5.1962    0.0000 C   0  0  0  0  0  0  0  0  0  0  0  0
    3.5260    3.8971    0.0000 C   0  0  0  0  0  0  0  0  0  0  0  0
    5.0260    3.8971    0.0000 O   0  0  0  0  0  0  0  0  0  0  0  0
    2.7760    2.5981    0.0000 N   0  0  0  0  0  0  0  0  0  0  0  0
    3.5260    1.2990    0.0000 C   0  0  0  0  0  0  0  0  0  0  0  0
    5.0260    1.2990    0.0000 C   0  0  0  0  0  0  0  0  0  0  0  0
    5.7760    0.0000    0.0000 C   0  0  0  0  0  0  0  0  0  0  0  0
    7.2760    0.0000    0.0000 C   0  0  0  0  0  0  0  0  0  0  0  0
    5.0260   -1.2990    0.0000 C   0  0  0  0  0  0  0  0  0  0  0  0
    2.7760    0.0000    0.0000 C   0  0  0  0  0  0  0  0  0  0  0  0
    3.5260   -1.2990    0.0000 O   0  0  0  0  0  0  0  0  0  0  0  0
    1.2760    0.0000    0.0000 N   0  0  0  0  0  0  0  0  0  0  0  0
    0.3943    1.2135    0.0000 C   0  0  0  0  0  0  0  0  0  0  0  0
   -1.0323    0.7500    0.0000 C   0  0  0  0  0  0  0  0  0  0  0  0
   -1.0323   -0.7500    0.0000 C   0  0  0  0  0  0  0  0  0  0  0  0
    0.3943   -1.2135    0.0000 C   0  0  0  0  0  0  0  0  0  0  0  0
    0.8578   -2.6401    0.0000 C   0  0  0  0  0  0  0  0  0  0  0  0
    2.3250   -2.9520    0.0000 O   0  0  0  0  0  0  0  0  0  0  0  0
   -0.1459   -3.7548    0.0000 N   0  0  0  0  0  0  0  0  0  0  0  0
    0.3177   -5.1814    0.0000 C   0  0  0  0  0  0  0  0  0  0  0  0
   -0.6860   -6.2961    0.0000 C   0  0  0  0  0  0  0  0  0  0  0  0
   -0.2225   -7.7227    0.0000 C   0  0  0  0  0  0  0  0  0  0  0  0
    0.2410   -9.1493    0.0000 C   0  0  0  0  0  0  0  0  0  0  0  0
    1.7849   -5.4933    0.0000 C   0  0  0  0  0  0  0  0  0  0  0  0
    2.7886   -4.3786    0.0000 O   0  0  0  0  0  0  0  0  0  0  0  0
    2.2484   -6.9199    0.0000 O   0  0  0  0  0  0  0  0  0  0  0  0
  1  2  1  0
  2  3  1  0
  3  4  1  0
  4  5  1  0
  5  6  1  0
  6  7  1  0
  6  8  1  0
  1  9  1  0
  9 10  1  0
 10 11  2  0
 10 12  1  0
 12 13  1  0
 13 14  1  1
 14 15  1  0
 15 16  1  0
 15 17  1  0
 13 18  1  0
 18 19  2  0
 18 20  1  0
 20 21  1  0
 21 22  1  1
 22 23  1  0
 23 24  1  0
 23 25  1  0
 21 26  1  0
 26 27  2  0
 26 28  1  0
 28 29  1  0
 29 30  1  0
 30 31  1  0
 31 32  1  0
 32 33  1  6
 33 34  2  0
 33 35  1  0
 35 36  1  0
 36 37  1  6
 37 38  1  0
 38 39  3  0
 36 40  1  0
 40 41  2  0
 40 42  1  0
 32 28  1  0
M  END
$$$$

     RDKit          2D

 44 45  0  0  0  0  0  0  0  0999 V2000
    0.7500   -6.4952    0.0000 N   0  0  0  0  0  0  0  0  0  0  0  0
    1.5000   -5.1962    0.0000 C   0  0  0  0  0  0  0  0  0  0  0  0
    0.7500   -3.8971    0.0000 C   0  0  0  0  0  0  0  0  0  0  0  0
    1.5000   -2.5981    0.0000 O   0  0  0  0  0  0  0  0  0  0  0  0
    0.7500   -1.2990    0.0000 C   0  0  0  0  0  0  0  0  0  0  0  0
    1.5000    0.0000    0.0000 C   0  0  0  0  0  0  0  0  0  0  0  0
    0.7500    1.2990    0.0000 C   0  0  0  0  0  0  0  0  0  0  0  0
   -0.7500    1.2990    0.0000 C   0  0  0  0  0  0  0  0  0  0  0  0
   -1.5000    0.0000    0.0000 C   0  0  0  0  0  0  0  0  0  0  0  0
   -0.7500   -1.2990    0.0000 C   0  0  0  0  0  0  0  0  0  0  0  0
    1.5000   -7.7942    0.0000 C   0  0  0  0  0  0  0  0  0  0  0  0
    0.7500   -9.0933    0.0000 C   0  0  0  0  0  0  0  0  0  0  0  0
   -0.7500   -9.0933    0.0000 O   0  0  0  0  0  0  0  0  0  0  0  0
    1.5000  -10.3923    0.0000 N   0  0  0  0  0  0  0  0  0  0  0  0
    0.7500  -11.6913    0.0000 C   0  0  0  0  0  0  0  0  0  0  0  0
    1.5000  -12.9904    0.0000 C   0  0  0  0  0  0  0  0  0  0  0  0
    0.7500  -14.2894    0.0000 C   0  0  0  0  0  0  0  0  0  0  0  0
    1.5000  -15.5885    0.0000 C   0  0  0  0  0  0  0  0  0  0  0  0
   -0.7500  -14.2894    0.0000 C   0  0  0  0  0  0  0  0  0  0  0  0
   -0.7500  -11.6913    0.0000 C   0  0  0  0  0  0  0  0  0  0  0  0
   -1.5000  -10.3923    0.0000 O   0  0  0  0  0  0  0  0  0  0  0  0
   -1.5000  -12.9904    0.0000 N   0  0  0  0  0  0  0  0  0  0  0  0
   -3.0000  -12.9904    0.0000 C   0  0  0  0  0  0  0  0  0  0  0  0
   -3.7500  -14.2894    0.0000 C   0  0  0  0  0  0  0  0  0  0  0  0
   -3.0000  -15.5885    0.0000 C   0  0  0  0  0  0  0  0  0  0  0  0
   -3.7500  -16.8875    0.0000 C   0  0  0  0  0  0  0  0  0  0  0  0
   -1.5000  -15.5885    0.0000 C   0  0  0  0  0  0  0  0  0  0  0  0
   -3.7500  -11.6913    0.0000 C   0  0  0  0  0  0  0  0  0  0  0  0
   -3.0000  -10.3923    0.0000 O   0  0  0  0  0  0  0  0  0  0  0  0
   -5.2500  -11.6913    0.0000 N   0  0  0  0  0  0  0  0  0  0  0  0
   -6.1317  -12.9049    0.0000 C   0  0  0  0  0  0  0  0  0  0  0  0
   -7.5583  -12.4413    0.0000 C   0  0  0  0  0  0  0  0  0  0  0  0
   -7.5583  -10.9413    0.0000 C   0  0  0  0  0  0  0  0  0  0  0  0
   -6.1317  -10.4778    0.0000 C   0  0  0  0  0  0  0  0  0  0  0  0
   -5.6682   -9.0512    0.0000 C   0  0  0  0  0  0  0  0  0  0  0  0
   -4.2009   -8.7394    0.0000 O   0  0  0  0  0  0  0  0  0  0  0  0
   -6.6718   -7.9365    0.0000 N   0  0  0  0  0  0  0  0  0  0  0  0
   -6.2083   -6.5099    0.0000 C   0  0  0  0  0  0  0  0  0  0  0  0
   -7.2120   -5.3952    0.0000 C   0  0  0  0  0  0  0  0  0  0  0  0
   -6.7485   -3.9686    0.0000 C   0  0  0  0  0  0  0  0  0  0  0  0
   -6.2850   -2.5420    0.0000 C   0  0  0  0  0  0  0  0  0  0  0  0
   -4.7411   -6.1981    0.0000 C   0  0  0  0  0  0  0  0  0  0  0  0
   -3.7374   -7.3128    0.0000 O   0  0  0  0  0  0  0  0  0  0  0  0
   -4.2776   -4.7715    0.0000 O   0  0  0  0  0  0  0  0  0  0  0  0
  1  2  1  0
  2  3  1  0
  3  4  1  0
  4  5  1  0
  5  6  2  0
  6  7  1  0
  7  8  2  0
  8  9  1  0
  9 10  2  0
  1 11  1  0
 11 12  1  0
 12 13  2  0
 12 14  1  0
 14 15  1  0
 15 16  1  1
 16 17  1  0
 17 18  1  0
 17 19  1  0
 15 20  1  0
 20 21  2  0
 20 22  1  0
 22 23  1  0
 23 24  1  1
 24 25  1  0
 25 26  1  0
 25 27  1  0
 23 28  1  0
 28 29  2  0
 28 30  1  0
 30 31  1  0
 31 32  1  0
 32 33  1  0
 33 34  1  0
 34 35  1  1
 35 36  2  0
 35 37  1  0
 37 38  1  0
 38 39  1  1
 39 40  1  0
 40 41  3  0
 38 42  1  0
 42 43  2  0
 42 44  1  0
 10  5  1  0
 34 30  1  0
M  END
$$$$

     RDKit          2D

 47 48  0  0  0  0  0  0  0  0999 V2000
    1.5000   -5.1962    0.0000 N   0  0  0  0  0  0  0  0  0  0  0  0
    0.7500   -3.8971    0.0000 C   0  0  0  0  0  0  0  0  0  0  0  0
    1.5000   -2.5981    0.0000 C   0  0  0  0  0  0  0  0  0  0  0  0
    0.7500   -1.2990    0.0000 C   0  0  0  0  0  0  0  0  0  0  0  0
    1.5000    0.0000    0.0000 C   0  0  0  0  0  0  0  0  0  0  0  0
    0.7500    1.2990    0.0000 C   0  0  0  0  0  0  0  0  0  0  0  0
   -0.7500    1.2990    0.0000 C   0  0  0  0  0  0  0  0  0  0  0  0
   -1.5000    0.0000    0.0000 C   0  0  0  0  0  0  0  0  0  0  0  0
   -3.0000    0.0000    0.0000 O   0  0  0  0  0  0  0  0  0  0  0  0
   -3.7500   -1.2990    0.0000 C   0  0  0  0  0  0  0  0  0  0  0  0
   -0.7500   -1.2990    0.0000 C   0  0  0  0  0  0  0  0  0  0  0  0
   -1.5000    2.5981    0.0000 O   0  0  0  0  0  0  0  0  0  0  0  0
   -0.7500    3.8971    0.0000 C   0  0  0  0  0  0  0  0  0  0  0  0
    0.7500   -6.4952    0.0000 C   0  0  0  0  0  0  0  0  0  0  0  0
    1.5000   -7.7942    0.0000 C   0  0  0  0  0  0  0  0  0  0  0  0
    3.0000   -7.7942    0.0000 O   0  0  0  0  0  0  0  0  0  0  0  0
    0.7500   -9.0933    0.0000 N   0  0  0  0  0  0  0  0  0  0  0  0
    1.5000  -10.3923    0.0000 C   0  0  0  0  0  0  0  0  0  0  0  0
    0.7500  -11.6913    0.0000 C   0  0  0  0  0  0  0  0  0  0  0  0
    1.5000  -12.9904    0.0000 C   0  0  0  0  0  0  0  0  0  0  0  0
    0.7500  -14.2894    0.0000 C   0  0  0  0  0  0  0  0  0  0  0  0
    3.0000  -12.9904    0.0000 C   0  0  0  0  0  0  0  0  0  0  0  0
    3.0000  -10.3923    0.0000 C   0  0  0  0  0  0  0  0  0  0  0  0
    3.7500   -9.0933    0.0000 O   0  0  0  0  0  0  0  0  0  0  0  0
    3.7500  -11.6913    0.0000 N   0  0  0  0  0  0  0  0  0  0  0  0
    5.2500  -11.6913    0.0000 C   0  0  0  0  0  0  0  0  0  0  0  0
    6.0000  -12.9904    0.0000 C   0  0  0  0  0  0  0  0  0  0  0  0
    5.2500  -14.2894    0.0000 C   0  0  0  0  0  0  0  0  0  0  0  0
    6.0000  -15.5885    0.0000 C   0  0  0  0  0  0  0  0  0  0  0  0
    3.7500  -14.2894    0.0000 C   0  0  0  0  0  0  0  0  0  0  0  0
    6.0000  -10.3923    0.0000 C   0  0  0  0  0  0  0  0  0  0  0  0
    5.2500   -9.0933    0.0000 O   0  0  0  0  0  0  0  0  0  0  0  0
    7.5000  -10.3923    0.0000 N   0  0  0  0  0  0  0  0  0  0  0  0
    8.3817  -11.6058    0.0000 C   0  0  0  0  0  0  0  0  0  0  0  0
    9.8083  -11.1423    0.0000 C   0  0  0  0  0  0  0  0  0  0  0  0
    9.8083   -9.6423    0.0000 C   0  0  0  0  0  0  0  0  0  0  0  0
    8.3817   -9.1788    0.0000 C   0  0  0  0  0  0  0  0  0  0  0  0
    7.9182   -7.7522    0.0000 C   0  0  0  0  0  0  0  0  0  0  0  0
    6.4509   -7.4403    0.0000 O   0  0  0  0  0  0  0  0  0  0  0  0
    8.9218   -6.6375    0.0000 N   0  0  0  0  0  0  0  0  0  0  0  0
    8.4583   -5.2109    0.0000 C   0  0  0  0  0  0  0  0  0  0  0  0
    9.4620   -4.0962    0.0000 C   0  0  0  0  0  0  0  0  0  0  0  0
    8.9985   -2.6696    0.0000 C   0  0  0  0  0  0  0  0  0  0  0  0
    8.5350   -1.2430    0.0000 C   0  0  0  0  0  0  0  0  0  0  0  0
    6.9911   -4.8990    0.0000 C   0  0  0  0  0  0  0  0  0  0  0  0
    5.9874   -6.0137    0.0000 O   0  0  0  0  0  0  0  0  0  0  0  0
    6.5276   -3.4724    0.0000 O   0  0  0  0  0  0  0  0  0  0  0  0
  1  2  1  0
  2  3  1  0
  3  4  1  0
  4  5  2  0
  5  6  1  0
  6  7  2  0
  7  8  1  0
  8  9  1  0
  9 10  1  0
  8 11  2  0
  7 12  1  0
 12 13  1  0
  1 14  1  0
 14 15  1  0
 15 16  2  0
 15 17  1  0
 17 18  1  0
 18 19  1  6
 19 20  1  0
 20 21  1  0
 20 22  1  0
 18 23  1  0
 23 24  2  0
 23 25  1  0
 25 26  1  0
 26 27  1  6
 27 28  1  0
 28 29  1  0
 28 30  1  0
 26 31  1  0
 31 32  2  0
 31 33  1  0
 33 34  1  0
 34 35  1  0
 35 36  1  0
 36 37  1  0
 37 38  1  6
 38 39  2  0
 38 40  1  0
 40 41  1  0
 41 42  1  6
 42 43  1  0
 43 44  3  0
 41 45  1  0
 45 46  2  0
 45 47  1  0
 11  4  1  0
 37 33  1  0
M  END
$$$$

     RDKit          2D

 54 55  0  0  0  0  0  0  0  0999 V2000
    1.2760    5.1962    0.0000 N   0  0  0  0  0  0  0  0  0  0  0  0
    2.7760    5.1962    0.0000 C   0  0  0  0  0  0  0  0  0  0  0  0
    3.5260    6.4952    0.0000 C   0  0  0  0  0  0  0  0  0  0  0  0
    2.7760    7.7942    0.0000 C   0  0  0  0  0  0  0  0  0  0  0  0
    3.5260    9.0933    0.0000 C   0  0  0  0  0  0  0  0  0  0  0  0
    1.2760    7.7942    0.0000 C   0  0  0  0  0  0  0  0  0  0  0  0
    3.5260    3.8971    0.0000 C   0  0  0  0  0  0  0  0  0  0  0  0
    5.0260    3.8971    0.0000 O   0  0  0  0  0  0  0  0  0  0  0  0
    2.7760    2.5981    0.0000 N   0  0  0  0  0  0  0  0  0  0  0  0
    3.5260    1.2990    0.0000 C   0  0  0  0  0  0  0  0  0  0  0  0
    5.0260    1.2990    0.0000 C   0  0  0  0  0  0  0  0  0  0  0  0
    5.7760    0.0000    0.0000 C   0  0  0  0  0  0  0  0  0  0  0  0
    7.2760    0.0000    0.0000 C   0  0  0  0  0  0  0  0  0  0  0  0
    5.0260   -1.2990    0.0000 C   0  0  0  0  0  0  0  0  0  0  0  0
    2.7760    0.0000    0.0000 C   0  0  0  0  0  0  0  0  0  0  0  0
    3.5260   -1.2990    0.0000 O   0  0  0  0  0  0  0  0  0  0  0  0
    1.2760    0.0000    0.0000 N   0  0  0  0  0  0  0  0  0  0  0  0
    0.3943    1.2135    0.0000 C   0  0  0  0  0  0  0  0  0  0  0  0
   -1.0323    0.7500    0.0000 C   0  0  0  0  0  0  0  0  0  0  0  0
   -1.0323   -0.7500    0.0000 C   0  0  0  0  0  0  0  0  0  0  0  0
    0.3943   -1.2135    0.0000 C   0  0  0  0  0  0  0  0  0  0  0  0
    0.8578   -2.6401    0.0000 C   0  0  0  0  0  0  0  0  0  0  0  0
    2.3250   -2.9520    0.0000 O   0  0  0  0  0  0  0  0  0  0  0  0
   -0.1459   -3.7548    0.0000 N   0  0  0  0  0  0  0  0  0  0  0  0
    0.3177   -5.1814    0.0000 C   0  0  0  0  0  0  0  0  0  0  0  0
   -0.6860   -6.2961    0.0000 C   0  0  0  0  0  0  0  0  0  0  0  0
   -0.2225   -7.7227    0.0000 C   0  0  0  0  0  0  0  0  0  0  0  0
   -1.2262   -8.8374    0.0000 C   0  0  0  0  0  0  0  0  0  0  0  0
    1.2447   -8.0346    0.0000 C   0  0  0  0  0  0  0  0  0  0  0  0
    1.7849   -5.4933    0.0000 C   0  0  0  0  0  0  0  0  0  0  0  0
    2.7886   -4.3786    0.0000 O   0  0  0  0  0  0  0  0  0  0  0  0
    2.2484   -6.9199    0.0000 N   0  0  0  0  0  0  0  0  0  0  0  0
    3.7156   -7.2317    0.0000 C   0  0  0  0  0  0  0  0  0  0  0  0
    4.7193   -6.1170    0.0000 C   0  0  0  0  0  0  0  0  0  0  0  0
    6.1865   -6.4289    0.0000 C   0  0  0  0  0  0  0  0  0  0  0  0
    7.1902   -5.3142    0.0000 C   0  0  0  0  0  0  0  0  0  0  0  0
    6.6501   -7.8555    0.0000 C   0  0  0  0  0  0  0  0  0  0  0  0
    4.1791   -8.6583    0.0000 C   0  0  0  0  0  0  0  0  0  0  0  0
    5.6464   -8.9702    0.0000 O   0  0  0  0  0  0  0  0  0  0  0  0
    3.1755   -9.7730    0.0000 N   0  0  0  0  0  0  0  0  0  0  0  0
    1.6837   -9.6162    0.0000 C   0  0  0  0  0  0  0  0  0  0  0  0
    1.0736  -10.9866    0.0000 C   0  0  0  0  0  0  0  0  0  0  0  0
    2.1883  -11.9903    0.0000 C   0  0  0  0  0  0  0  0  0  0  0  0
    3.4873  -11.2403    0.0000 C   0  0  0  0  0  0  0  0  0  0  0  0
    4.8576  -11.8504    0.0000 C   0  0  0  0  0  0  0  0  0  0  0  0
    6.0712  -10.9687    0.0000 O   0  0  0  0  0  0  0  0  0  0  0  0
    5.0144  -13.3421    0.0000 N   0  0  0  0  0  0  0  0  0  0  0  0
    6.3847  -13.9522    0.0000 C   0  0  0  0  0  0  0  0  0  0  0  0
    6.5415  -15.4440    0.0000 C   0  0  0  0  0  0  0  0  0  0  0  0
    7.9119  -16.0541    0.0000 C   0  0  0  0  0  0  0  0  0  0  0  0
    9.2822  -16.6642    0.0000 C   0  0  0  0  0  0  0  0  0  0  0  0
    7.5983  -13.0706    0.0000 C   0  0  0  0  0  0  0  0  0  0  0  0
    7.4415  -11.5788    0.0000 O   0  0  0  0  0  0  0  0  0  0  0  0
    8.9686  -13.6807    0.0000 O   0  0  0  0  0  0  0  0  0  0  0  0
  2  1  1  1
  2  3  1  0
  3  4  1  0
  4  5  1  0
  4  6  1  0
  2  7  1  0
  7  8  2  0
  7  9  1  0
  9 10  1  0
 10 11  1  1
 11 12  1  0
 12 13  1  0
 12 14  1  0
 10 15  1  0
 15 16  2  0
 15 17  1  0
 17 18  1  0
 18 19  1  0
 19 20  1  0
 20 21  1  0
 21 22  1  6
 22 23  2  0
 22 24  1  0
 24 25  1  0
 25 26  1  6
 26 27  1  0
 27 28  1  0
 27 29  1  0
 25 30  1  0
 30 31  2  0
 30 32  1  0
 32 33  1  0
 33 34  1  1
 34 35  1  0
 35 36  1  0
 35 37  1  0
 33 38  1  0
 38 39  2  0
 38 40  1  0
 40 41  1  0
 41 42  1  0
 42 43  1  0
 43 44  1  0
 44 45  1  6
 45 46  2  0
 45 47  1  0
 47 48  1  0
 48 49  1  6
 49 50  1  0
 50 51  3  0
 48 52  1  0
 52 53  2  0
 52 54  1  0
 21 17  1  0
 44 40  1  0
M  END
$$$$

     RDKit          2D

 54 55  0  0  0  0  0  0  0  0999 V2000
    1.2760    5.1962    0.0000 N   0  0  0  0  0  0  0  0  0  0  0  0
    2.7760    5.1962    0.0000 C   0  0  0  0  0  0  0  0  0  0  0  0
    3.5260    6.4952    0.0000 C   0  0  0  0  0  0  0  0  0  0  0  0
    2.7760    7.7942    0.0000 C   0  0  0  0  0  0  0  0  0  0  0  0
    3.5260    9.0933    0.0000 C   0  0  0  0  0  0  0  0  0  0  0  0
    1.2760    7.7942    0.0000 C   0  0  0  0  0  0  0  0  0  0  0  0
    3.5260    3.8971    0.0000 C   0  0  0  0  0  0  0  0  0  0  0  0
    5.0260    3.8971    0.0000 O   0  0  0  0  0  0  0  0  0  0  0  0
    2.7760    2.5981    0.0000 N   0  0  0  0  0  0  0  0  0  0  0  0
    3.5260    1.2990    0.0000 C   0  0  0  0  0  0  0  0  0  0  0  0
    5.0260    1.2990    0.0000 C   0  0  0  0  0  0  0  0  0  0  0  0
    5.7760    0.0000    0.0000 C   0  0  0  0  0  0  0  0  0  0  0  0
    7.2760    0.0000    0.0000 C   0  0  0  0  0  0  0  0  0  0  0  0
    5.0260   -1.2990    0.0000 C   0  0  0  0  0  0  0  0  0  0  0  0
    2.7760    0.0000    0.0000 C   0  0  0  0  0  0  0  0  0  0  0  0
    3.5260   -1.2990    0.0000 O   0  0  0  0  0  0  0  0  0  0  0  0
    1.2760    0.0000    0.0000 N   0  0  0  0  0  0  0  0  0  0  0  0
    0.3943    1.2135    0.0000 C   0  0  0  0  0  0  0  0  0  0  0  0
   -1.0323    0.7500    0.0000 C   0  0  0  0  0  0  0  0  0  0  0  0
   -1.0323   -0.7500    0.0000 C   0  0  0  0  0  0  0  0  0  0  0  0
    0.3943   -1.2135    0.0000 C   0  0  0  0  0  0  0  0  0  0  0  0
    0.8578   -2.6401    0.0000 C   0  0  0  0  0  0  0  0  0  0  0  0
    2.3250   -2.9520    0.0000 O   0  0  0  0  0  0  0  0  0  0  0  0
   -0.1459   -3.7548    0.0000 N   0  0  0  0  0  0  0  0  0  0  0  0
    0.3177   -5.1814    0.0000 C   0  0  0  0  0  0  0  0  0  0  0  0
   -0.6860   -6.2961    0.0000 C   0  0  0  0  0  0  0  0  0  0  0  0
   -0.2225   -7.7227    0.0000 C   0  0  0  0  0  0  0  0  0  0  0  0
   -1.2262   -8.8374    0.0000 C   0  0  0  0  0  0  0  0  0  0  0  0
    1.2447   -8.0346    0.0000 C   0  0  0  0  0  0  0  0  0  0  0  0
    1.7849   -5.4933    0.0000 C   0  0  0  0  0  0  0  0  0  0  0  0
    2.7886   -4.3786    0.0000 O   0  0  0  0  0  0  0  0  0  0  0  0
    2.2484   -6.9199    0.0000 N   0  0  0  0  0  0  0  0  0  0  0  0
    3.7156   -7.2317    0.0000 C   0  0  0  0  0  0  0  0  0  0  0  0
    4.7193   -6.1170    0.0000 C   0  0  0  0  0  0  0  0  0  0  0  0
    6.1865   -6.4289    0.0000 C   0  0  0  0  0  0  0  0  0  0  0  0
    7.1902   -5.3142    0.0000 C   0  0  0  0  0  0  0  0  0  0  0  0
    6.6501   -7.8555    0.0000 C   0  0  0  0  0  0  0  0  0  0  0  0
    4.1791   -8.6583    0.0000 C   0  0  0  0  0  0  0  0  0  0  0  0
    5.6464   -8.9702    0.0000 O   0  0  0  0  0  0  0  0  0  0  0  0
    3.1755   -9.7730    0.0000 N   0  0  0  0  0  0  0  0  0  0  0  0
    1.6837   -9.6162    0.0000 C   0  0  0  0  0  0  0  0  0  0  0  0
    1.0736  -10.9866    0.0000 C   0  0  0  0  0  0  0  0  0  0  0  0
    2.1883  -11.9903    0.0000 C   0  0  0  0  0  0  0  0  0  0  0  0
    3.4873  -11.2403    0.0000 C   0  0  0  0  0  0  0  0  0  0  0  0
    4.8576  -11.8504    0.0000 C   0  0  0  0  0  0  0  0  0  0  0  0
    6.0712  -10.9687    0.0000 O   0  0  0  0  0  0  0  0  0  0  0  0
    5.0144  -13.3421    0.0000 N   0  0  0  0  0  0  0  0  0  0  0  0
    6.3847  -13.9522    0.0000 C   0  0  0  0  0  0  0  0  0  0  0  0
    6.5415  -15.4440    0.0000 C   0  0  0  0  0  0  0  0  0  0  0  0
    7.9119  -16.0541    0.0000 C   0  0  0  0  0  0  0  0  0  0  0  0
    9.2822  -16.6642    0.0000 C   0  0  0  0  0  0  0  0  0  0  0  0
    7.5983  -13.0706    0.0000 C   0  0  0  0  0  0  0  0  0  0  0  0
    7.4415  -11.5788    0.0000 O   0  0  0  0  0  0  0  0  0  0  0  0
    8.9686  -13.6807    0.0000 O   0  0  0  0  0  0  0  0  0  0  0  0
  2  1  1  6
  2  3  1  0
  3  4  1  0
  4  5  1  0
  4  6  1  0
  2  7  1  0
  7  8  2  0
  7  9  1  0
  9 10  1  0
 10 11  1  1
 11 12  1  0
 12 13  1  0
 12 14  1  0
 10 15  1  0
 15 16  2  0
 15 17  1  0
 17 18  1  0
 18 19  1  0
 19 20  1  0
 20 21  1  0
 21 22  1  6
 22 23  2  0
 22 24  1  0
 24 25  1  0
 25 26  1  6
 26 27  1  0
 27 28  1  0
 27 29  1  0
 25 30  1  0
 30 31  2  0
 30 32  1  0
 32 33  1  0
 33 34  1  1
 34 35  1  0
 35 36  1  0
 35 37  1  0
 33 38  1  0
 38 39  2  0
 38 40  1  0
 40 41  1  0
 41 42  1  0
 42 43  1  0
 43 44  1  0
 44 45  1  6
 45 46  2  0
 45 47  1  0
 47 48  1  0
 48 49  1  6
 49 50  1  0
 50 51  3  0
 48 52  1  0
 52 53  2  0
 52 54  1  0
 21 17  1  0
 44 40  1  0
M  END
$$$$

     RDKit          2D

 55 56  0  0  0  0  0  0  0  0999 V2000
    1.2760    5.1962    0.0000 N   0  0  0  0  0  0  0  0  0  0  0  0
    0.5260    6.4952    0.0000 C   0  0  0  0  0  0  0  0  0  0  0  0
    2.7760    5.1962    0.0000 C   0  0  0  0  0  0  0  0  0  0  0  0
    3.5260    6.4952    0.0000 C   0  0  0  0  0  0  0  0  0  0  0  0
    2.7760    7.7942    0.0000 C   0  0  0  0  0  0  0  0  0  0  0  0
    3.5260    9.0933    0.0000 C   0  0  0  0  0  0  0  0  0  0  0  0
    1.2760    7.7942    0.0000 C   0  0  0  0  0  0  0  0  0  0  0  0
    3.5260    3.8971    0.0000 C   0  0  0  0  0  0  0  0  0  0  0  0
    5.0260    3.8971    0.0000 O   0  0  0  0  0  0  0  0  0  0  0  0
    2.7760    2.5981    0.0000 N   0  0  0  0  0  0  0  0  0  0  0  0
    3.5260    1.2990    0.0000 C   0  0  0  0  0  0  0  0  0  0  0  0
    5.0260    1.2990    0.0000 C   0  0  0  0  0  0  0  0  0  0  0  0
    5.7760    0.0000    0.0000 C   0  0  0  0  0  0  0  0  0  0  0  0
    7.2760    0.0000    0.0000 C   0  0  0  0  0  0  0  0  0  0  0  0
    5.0260   -1.2990    0.0000 C   0  0  0  0  0  0  0  0  0  0  0  0
    2.7760    0.0000    0.0000 C   0  0  0  0  0  0  0  0  0  0  0  0
    3.5260   -1.2990    0.0000 O   0  0  0  0  0  0  0  0  0  0  0  0
    1.2760    0.0000    0.0000 N   0  0  0  0  0  0  0  0  0  0  0  0
    0.3943    1.2135    0.0000 C   0  0  0  0  0  0  0  0  0  0  0  0
   -1.0323    0.7500    0.0000 C   0  0  0  0  0  0  0  0  0  0  0  0
   -1.0323   -0.7500    0.0000 C   0  0  0  0  0  0  0  0  0  0  0  0
    0.3943   -1.2135    0.0000 C   0  0  0  0  0  0  0  0  0  0  0  0
    0.8578   -2.6401    0.0000 C   0  0  0  0  0  0  0  0  0  0  0  0
    2.3250   -2.9520    0.0000 O   0  0  0  0  0  0  0  0  0  0  0  0
   -0.1459   -3.7548    0.0000 N   0  0  0  0  0  0  0  0  0  0  0  0
    0.3177   -5.1814    0.0000 C   0  0  0  0  0  0  0  0  0  0  0  0
   -0.6860   -6.2961    0.0000 C   0  0  0  0  0  0  0  0  0  0  0  0
   -0.2225   -7.7227    0.0000 C   0  0  0  0  0  0  0  0  0  0  0  0
   -1.2262   -8.8374    0.0000 C   0  0  0  0  0  0  0  0  0  0  0  0
    1.2447   -8.0346    0.0000 C   0  0  0  0  0  0  0  0  0  0  0  0
    1.7849   -5.4933    0.0000 C   0  0  0  0  0  0  0  0  0  0  0  0
    2.7886   -4.3786    0.0000 O   0  0  0  0  0  0  0  0  0  0  0  0
    2.2484   -6.9199    0.0000 N   0  0  0  0  0  0  0  0  0  0  0  0
    3.7156   -7.2317    0.0000 C   0  0  0  0  0  0  0  0  0  0  0  0
    4.7193   -6.1170    0.0000 C   0  0  0  0  0  0  0  0  0  0  0  0
    6.1865   -6.4289    0.0000 C   0  0  0  0  0  0  0  0  0  0  0  0
    7.1902   -5.3142    0.0000 C   0  0  0  0  0  0  0  0  0  0  0  0
    6.6501   -7.8555    0.0000 C   0  0  0  0  0  0  0  0  0  0  0  0
    4.1791   -8.6583    0.0000 C   0  0  0  0  0  0  0  0  0  0  0  0
    5.6464   -8.9702    0.0000 O   0  0  0  0  0  0  0  0  0  0  0  0
    3.1755   -9.7730    0.0000 N   0  0  0  0  0  0  0  0  0  0  0  0
    1.6837   -9.6162    0.0000 C   0  0  0  0  0  0  0  0  0  0  0  0
    1.0736  -10.9866    0.0000 C   0  0  0  0  0  0  0  0  0  0  0  0
    2.1883  -11.9903    0.0000 C   0  0  0  0  0  0  0  0  0  0  0  0
    3.4873  -11.2403    0.0000 C   0  0  0  0  0  0  0  0  0  0  0  0
    4.8576  -11.8504    0.0000 C   0  0  0  0  0  0  0  0  0  0  0  0
    6.0712  -10.9687    0.0000 O   0  0  0  0  0  0  0  0  0  0  0  0
    5.0144  -13.3421    0.0000 N   0  0  0  0  0  0  0  0  0  0  0  0
    6.3847  -13.9522    0.0000 C   0  0  0  0  0  0  0  0  0  0  0  0
    6.5415  -15.4440    0.0000 C   0  0  0  0  0  0  0  0  0  0  0  0
    7.9119  -16.0541    0.0000 C   0  0  0  0  0  0  0  0  0  0  0  0
    9.2822  -16.6642    0.0000 C   0  0  0  0  0  0  0  0  0  0  0  0
    7.5983  -13.0706    0.0000 C   0  0  0  0  0  0  0  0  0  0  0  0
    7.4415  -11.5788    0.0000 O   0  0  0  0  0  0  0  0  0  0  0  0
    8.9686  -13.6807    0.0000 O   0  0  0  0  0  0  0  0  0  0  0  0
  1  2  1  0
  1  3  1  0
  3  4  1  1
  4  5  1  0
  5  6  1  0
  5  7  1  0
  3  8  1  0
  8  9  2  0
  8 10  1  0
 10 11  1  0
 11 12  1  1
 12 13  1  0
 13 14  1  0
 13 15  1  0
 11 16  1  0
 16 17  2  0
 16 18  1  0
 18 19  1  0
 19 20  1  0
 20 21  1  0
 21 22  1  0
 22 23  1  6
 23 24  2  0
 23 25  1  0
 25 26  1  0
 26 27  1  6
 27 28  1  0
 28 29  1  0
 28 30  1  0
 26 31  1  0
 31 32  2  0
 31 33  1  0
 33 34  1  0
 34 35  1  1
 35 36  1  0
 36 37  1  0
 36 38  1  0
 34 39  1  0
 39 40  2  0
 39 41  1  0
 41 42  1  0
 42 43  1  0
 43 44  1  0
 44 45  1  0
 45 46  1  6
 46 47  2  0
 46 48  1  0
 48 49  1  0
 49 50  1  6
 50 51  1  0
 51 52  3  0
 49 53  1  0
 53 54  2  0
 53 55  1  0
 22 18  1  0
 45 41  1  0
M  END
$$$$

     RDKit          2D

 55 56  0  0  0  0  0  0  0  0999 V2000
    1.2760    5.1962    0.0000 N   0  0  0  0  0  0  0  0  0  0  0  0
    0.5260    6.4952    0.0000 C   0  0  0  0  0  0  0  0  0  0  0  0
    2.7760    5.1962    0.0000 C   0  0  0  0  0  0  0  0  0  0  0  0
    3.5260    6.4952    0.0000 C   0  0  0  0  0  0  0  0  0  0  0  0
    2.7760    7.7942    0.0000 C   0  0  0  0  0  0  0  0  0  0  0  0
    3.5260    9.0933    0.0000 C   0  0  0  0  0  0  0  0  0  0  0  0
    1.2760    7.7942    0.0000 C   0  0  0  0  0  0  0  0  0  0  0  0
    3.5260    3.8971    0.0000 C   0  0  0  0  0  0  0  0  0  0  0  0
    5.0260    3.8971    0.0000 O   0  0  0  0  0  0  0  0  0  0  0  0
    2.7760    2.5981    0.0000 N   0  0  0  0  0  0  0  0  0  0  0  0
    3.5260    1.2990    0.0000 C   0  0  0  0  0  0  0  0  0  0  0  0
    5.0260    1.2990    0.0000 C   0  0  0  0  0  0  0  0  0  0  0  0
    5.7760    0.0000    0.0000 C   0  0  0  0  0  0  0  0  0  0  0  0
    7.2760    0.0000    0.0000 C   0  0  0  0  0  0  0  0  0  0  0  0
    5.0260   -1.2990    0.0000 C   0  0  0  0  0  0  0  0  0  0  0  0
    2.7760    0.0000    0.0000 C   0  0  0  0  0  0  0  0  0  0  0  0
    3.5260   -1.2990    0.0000 O   0  0  0  0  0  0  0  0  0  0  0  0
    1.2760    0.0000    0.0000 N   0  0  0  0  0  0  0  0  0  0  0  0
    0.3943    1.2135    0.0000 C   0  0  0  0  0  0  0  0  0  0  0  0
   -1.0323    0.7500    0.0000 C   0  0  0  0  0  0  0  0  0  0  0  0
   -1.0323   -0.7500    0.0000 C   0  0  0  0  0  0  0  0  0  0  0  0
    0.3943   -1.2135    0.0000 C   0  0  0  0  0  0  0  0  0  0  0  0
    0.8578   -2.6401    0.0000 C   0  0  0  0  0  0  0  0  0  0  0  0
    2.3250   -2.9520    0.0000 O   0  0  0  0  0  0  0  0  0  0  0  0
   -0.1459   -3.7548    0.0000 N   0  0  0  0  0  0  0  0  0  0  0  0
    0.3177   -5.1814    0.0000 C   0  0  0  0  0  0  0  0  0  0  0  0
   -0.6860   -6.2961    0.0000 C   0  0  0  0  0  0  0  0  0  0  0  0
   -0.2225   -7.7227    0.0000 C   0  0  0  0  0  0  0  0  0  0  0  0
   -1.2262   -8.8374    0.0000 C   0  0  0  0  0  0  0  0  0  0  0  0
    1.2447   -8.0346    0.0000 C   0  0  0  0  0  0  0  0  0  0  0  0
    1.7849   -5.4933    0.0000 C   0  0  0  0  0  0  0  0  0  0  0  0
    2.7886   -4.3786    0.0000 O   0  0  0  0  0  0  0  0  0  0  0  0
    2.2484   -6.9199    0.0000 N   0  0  0  0  0  0  0  0  0  0  0  0
    3.7156   -7.2317    0.0000 C   0  0  0  0  0  0  0  0  0  0  0  0
    4.7193   -6.1170    0.0000 C   0  0  0  0  0  0  0  0  0  0  0  0
    6.1865   -6.4289    0.0000 C   0  0  0  0  0  0  0  0  0  0  0  0
    7.1902   -5.3142    0.0000 C   0  0  0  0  0  0  0  0  0  0  0  0
    6.6501   -7.8555    0.0000 C   0  0  0  0  0  0  0  0  0  0  0  0
    4.1791   -8.6583    0.0000 C   0  0  0  0  0  0  0  0  0  0  0  0
    5.6464   -8.9702    0.0000 O   0  0  0  0  0  0  0  0  0  0  0  0
    3.1755   -9.7730    0.0000 N   0  0  0  0  0  0  0  0  0  0  0  0
    1.6837   -9.6162    0.0000 C   0  0  0  0  0  0  0  0  0  0  0  0
    1.0736  -10.9866    0.0000 C   0  0  0  0  0  0  0  0  0  0  0  0
    2.1883  -11.9903    0.0000 C   0  0  0  0  0  0  0  0  0  0  0  0
    3.4873  -11.2403    0.0000 C   0  0  0  0  0  0  0  0  0  0  0  0
    4.8576  -11.8504    0.0000 C   0  0  0  0  0  0  0  0  0  0  0  0
    6.0712  -10.9687    0.0000 O   0  0  0  0  0  0  0  0  0  0  0  0
    5.0144  -13.3421    0.0000 N   0  0  0  0  0  0  0  0  0  0  0  0
    6.3847  -13.9522    0.0000 C   0  0  0  0  0  0  0  0  0  0  0  0
    6.5415  -15.4440    0.0000 C   0  0  0  0  0  0  0  0  0  0  0  0
    7.9119  -16.0541    0.0000 C   0  0  0  0  0  0  0  0  0  0  0  0
    9.2822  -16.6642    0.0000 C   0  0  0  0  0  0  0  0  0  0  0  0
    7.5983  -13.0706    0.0000 C   0  0  0  0  0  0  0  0  0  0  0  0
    7.4415  -11.5788    0.0000 O   0  0  0  0  0  0  0  0  0  0  0  0
    8.9686  -13.6807    0.0000 O   0  0  0  0  0  0  0  0  0  0  0  0
  1  2  1  0
  1  3  1  0
  3  4  1  6
  4  5  1  0
  5  6  1  0
  5  7  1  0
  3  8  1  0
  8  9  2  0
  8 10  1  0
 10 11  1  0
 11 12  1  1
 12 13  1  0
 13 14  1  0
 13 15  1  0
 11 16  1  0
 16 17  2  0
 16 18  1  0
 18 19  1  0
 19 20  1  0
 20 21  1  0
 21 22  1  0
 22 23  1  6
 23 24  2  0
 23 25  1  0
 25 26  1  0
 26 27  1  6
 27 28  1  0
 28 29  1  0
 28 30  1  0
 26 31  1  0
 31 32  2  0
 31 33  1  0
 33 34  1  0
 34 35  1  1
 35 36  1  0
 36 37  1  0
 36 38  1  0
 34 39  1  0
 39 40  2  0
 39 41  1  0
 41 42  1  0
 42 43  1  0
 43 44  1  0
 44 45  1  0
 45 46  1  6
 46 47  2  0
 46 48  1  0
 48 49  1  0
 49 50  1  6
 50 51  1  0
 51 52  3  0
 49 53  1  0
 53 54  2  0
 53 55  1  0
 22 18  1  0
 45 41  1  0
M  END
$$$$

     RDKit          2D

 54 55  0  0  0  0  0  0  0  0999 V2000
    1.2760    5.1962    0.0000 N   0  0  0  0  0  0  0  0  0  0  0  0
    2.7760    5.1962    0.0000 C   0  0  0  0  0  0  0  0  0  0  0  0
    3.5260    6.4952    0.0000 C   0  0  0  0  0  0  0  0  0  0  0  0
    2.7760    7.7942    0.0000 C   0  0  0  0  0  0  0  0  0  0  0  0
    3.5260    9.0933    0.0000 C   0  0  0  0  0  0  0  0  0  0  0  0
    1.2760    7.7942    0.0000 C   0  0  0  0  0  0  0  0  0  0  0  0
    3.5260    3.8971    0.0000 C   0  0  0  0  0  0  0  0  0  0  0  0
    5.0260    3.8971    0.0000 O   0  0  0  0  0  0  0  0  0  0  0  0
    2.7760    2.5981    0.0000 N   0  0  0  0  0  0  0  0  0  0  0  0
    3.5260    1.2990    0.0000 C   0  0  0  0  0  0  0  0  0  0  0  0
    5.0260    1.2990    0.0000 C   0  0  0  0  0  0  0  0  0  0  0  0
    5.7760    0.0000    0.0000 C   0  0  0  0  0  0  0  0  0  0  0  0
    7.2760    0.0000    0.0000 C   0  0  0  0  0  0  0  0  0  0  0  0
    5.0260   -1.2990    0.0000 C   0  0  0  0  0  0  0  0  0  0  0  0
    2.7760    0.0000    0.0000 C   0  0  0  0  0  0  0  0  0  0  0  0
    3.5260   -1.2990    0.0000 O   0  0  0  0  0  0  0  0  0  0  0  0
    1.2760    0.0000    0.0000 N   0  0  0  0  0  0  0  0  0  0  0  0
    0.3943    1.2135    0.0000 C   0  0  0  0  0  0  0  0  0  0  0  0
   -1.0323    0.7500    0.0000 C   0  0  0  0  0  0  0  0  0  0  0  0
   -1.0323   -0.7500    0.0000 C   0  0  0  0  0  0  0  0  0  0  0  0
    0.3943   -1.2135    0.0000 C   0  0  0  0  0  0  0  0  0  0  0  0
    0.8578   -2.6401    0.0000 C   0  0  0  0  0  0  0  0  0  0  0  0
    2.3250   -2.9520    0.0000 O   0  0  0  0  0  0  0  0  0  0  0  0
   -0.1459   -3.7548    0.0000 N   0  0  0  0  0  0  0  0  0  0  0  0
    0.3177   -5.1814    0.0000 C   0  0  0  0  0  0  0  0  0  0  0  0
   -0.6860   -6.2961    0.0000 C   0  0  0  0  0  0  0  0  0  0  0  0
   -0.2225   -7.7227    0.0000 C   0  0  0  0  0  0  0  0  0  0  0  0
   -1.2262   -8.8374    0.0000 C   0  0  0  0  0  0  0  0  0  0  0  0
    1.2447   -8.0346    0.0000 C   0  0  0  0  0  0  0  0  0  0  0  0
    1.7849   -5.4933    0.0000 C   0  0  0  0  0  0  0  0  0  0  0  0
    2.7886   -4.3786    0.0000 O   0  0  0  0  0  0  0  0  0  0  0  0
    2.2484   -6.9199    0.0000 N   0  0  0  0  0  0  0  0  0  0  0  0
    3.7156   -7.2317    0.0000 C   0  0  0  0  0  0  0  0  0  0  0  0
    4.7193   -6.1170    0.0000 C   0  0  0  0  0  0  0  0  0  0  0  0
    6.1865   -6.4289    0.0000 C   0  0  0  0  0  0  0  0  0  0  0  0
    7.1902   -5.3142    0.0000 C   0  0  0  0  0  0  0  0  0  0  0  0
    6.6501   -7.8555    0.0000 C   0  0  0  0  0  0  0  0  0  0  0  0
    4.1791   -8.6583    0.0000 C   0  0  0  0  0  0  0  0  0  0  0  0
    5.6464   -8.9702    0.0000 O   0  0  0  0  0  0  0  0  0  0  0  0
    3.1755   -9.7730    0.0000 N   0  0  0  0  0  0  0  0  0  0  0  0
    1.6837   -9.6162    0.0000 C   0  0  0  0  0  0  0  0  0  0  0  0
    1.0736  -10.9866    0.0000 C   0  0  0  0  0  0  0  0  0  0  0  0
    2.1883  -11.9903    0.0000 C   0  0  0  0  0  0  0  0  0  0  0  0
    3.4873  -11.2403    0.0000 C   0  0  0  0  0  0  0  0  0  0  0  0
    4.8576  -11.8504    0.0000 C   0  0  0  0  0  0  0  0  0  0  0  0
    6.0712  -10.9687    0.0000 O   0  0  0  0  0  0  0  0  0  0  0  0
    5.0144  -13.3421    0.0000 N   0  0  0  0  0  0  0  0  0  0  0  0
    6.3847  -13.9522    0.0000 C   0  0  0  0  0  0  0  0  0  0  0  0
    6.5415  -15.4440    0.0000 C   0  0  0  0  0  0  0  0  0  0  0  0
    7.9119  -16.0541    0.0000 C   0  0  0  0  0  0  0  0  0  0  0  0
    9.2822  -16.6642    0.0000 C   0  0  0  0  0  0  0  0  0  0  0  0
    7.5983  -13.0706    0.0000 C   0  0  0  0  0  0  0  0  0  0  0  0
    7.4415  -11.5788    0.0000 O   0  0  0  0  0  0  0  0  0  0  0  0
    8.9686  -13.6807    0.0000 O   0  0  0  0  0  0  0  0  0  0  0  0
  2  1  1  1
  2  3  1  0
  3  4  1  0
  4  5  1  0
  4  6  1  0
  2  7  1  0
  7  8  2  0
  7  9  1  0
  9 10  1  0
 10 11  1  6
 11 12  1  0
 12 13  1  0
 12 14  1  0
 10 15  1  0
 15 16  2  0
 15 17  1  0
 17 18  1  0
 18 19  1  0
 19 20  1  0
 20 21  1  0
 21 22  1  6
 22 23  2  0
 22 24  1  0
 24 25  1  0
 25 26  1  6
 26 27  1  0
 27 28  1  0
 27 29  1  0
 25 30  1  0
 30 31  2  0
 30 32  1  0
 32 33  1  0
 33 34  1  1
 34 35  1  0
 35 36  1  0
 35 37  1  0
 33 38  1  0
 38 39  2  0
 38 40  1  0
 40 41  1  0
 41 42  1  0
 42 43  1  0
 43 44  1  0
 44 45  1  6
 45 46  2  0
 45 47  1  0
 47 48  1  0
 48 49  1  6
 49 50  1  0
 50 51  3  0
 48 52  1  0
 52 53  2  0
 52 54  1  0
 21 17  1  0
 44 40  1  0
M  END
$$$$

     RDKit          2D

 54 55  0  0  0  0  0  0  0  0999 V2000
    1.2760    5.1962    0.0000 N   0  0  0  0  0  0  0  0  0  0  0  0
    2.7760    5.1962    0.0000 C   0  0  0  0  0  0  0  0  0  0  0  0
    3.5260    6.4952    0.0000 C   0  0  0  0  0  0  0  0  0  0  0  0
    2.7760    7.7942    0.0000 C   0  0  0  0  0  0  0  0  0  0  0  0
    3.5260    9.0933    0.0000 C   0  0  0  0  0  0  0  0  0  0  0  0
    1.2760    7.7942    0.0000 C   0  0  0  0  0  0  0  0  0  0  0  0
    3.5260    3.8971    0.0000 C   0  0  0  0  0  0  0  0  0  0  0  0
    5.0260    3.8971    0.0000 O   0  0  0  0  0  0  0  0  0  0  0  0
    2.7760    2.5981    0.0000 N   0  0  0  0  0  0  0  0  0  0  0  0
    3.5260    1.2990    0.0000 C   0  0  0  0  0  0  0  0  0  0  0  0
    5.0260    1.2990    0.0000 C   0  0  0  0  0  0  0  0  0  0  0  0
    5.7760    0.0000    0.0000 C   0  0  0  0  0  0  0  0  0  0  0  0
    7.2760    0.0000    0.0000 C   0  0  0  0  0  0  0  0  0  0  0  0
    5.0260   -1.2990    0.0000 C   0  0  0  0  0  0  0  0  0  0  0  0
    2.7760    0.0000    0.0000 C   0  0  0  0  0  0  0  0  0  0  0  0
    3.5260   -1.2990    0.0000 O   0  0  0  0  0  0  0  0  0  0  0  0
    1.2760    0.0000    0.0000 N   0  0  0  0  0  0  0  0  0  0  0  0
    0.3943    1.2135    0.0000 C   0  0  0  0  0  0  0  0  0  0  0  0
   -1.0323    0.7500    0.0000 C   0  0  0  0  0  0  0  0  0  0  0  0
   -1.0323   -0.7500    0.0000 C   0  0  0  0  0  0  0  0  0  0  0  0
    0.3943   -1.2135    0.0000 C   0  0  0  0  0  0  0  0  0  0  0  0
    0.8578   -2.6401    0.0000 C   0  0  0  0  0  0  0  0  0  0  0  0
    2.3250   -2.9520    0.0000 O   0  0  0  0  0  0  0  0  0  0  0  0
   -0.1459   -3.7548    0.0000 N   0  0  0  0  0  0  0  0  0  0  0  0
    0.3177   -5.1814    0.0000 C   0  0  0  0  0  0  0  0  0  0  0  0
   -0.6860   -6.2961    0.0000 C   0  0  0  0  0  0  0  0  0  0  0  0
   -0.2225   -7.7227    0.0000 C   0  0  0  0  0  0  0  0  0  0  0  0
   -1.2262   -8.8374    0.0000 C   0  0  0  0  0  0  0  0  0  0  0  0
    1.2447   -8.0346    0.0000 C   0  0  0  0  0  0  0  0  0  0  0  0
    1.7849   -5.4933    0.0000 C   0  0  0  0  0  0  0  0  0  0  0  0
    2.7886   -4.3786    0.0000 O   0  0  0  0  0  0  0  0  0  0  0  0
    2.2484   -6.9199    0.0000 N   0  0  0  0  0  0  0  0  0  0  0  0
    3.7156   -7.2317    0.0000 C   0  0  0  0  0  0  0  0  0  0  0  0
    4.7193   -6.1170    0.0000 C   0  0  0  0  0  0  0  0  0  0  0  0
    6.1865   -6.4289    0.0000 C   0  0  0  0  0  0  0  0  0  0  0  0
    7.1902   -5.3142    0.0000 C   0  0  0  0  0  0  0  0  0  0  0  0
    6.6501   -7.8555    0.0000 C   0  0  0  0  0  0  0  0  0  0  0  0
    4.1791   -8.6583    0.0000 C   0  0  0  0  0  0  0  0  0  0  0  0
    5.6464   -8.9702    0.0000 O   0  0  0  0  0  0  0  0  0  0  0  0
    3.1755   -9.7730    0.0000 N   0  0  0  0  0  0  0  0  0  0  0  0
    1.6837   -9.6162    0.0000 C   0  0  0  0  0  0  0  0  0  0  0  0
    1.0736  -10.9866    0.0000 C   0  0  0  0  0  0  0  0  0  0  0  0
    2.1883  -11.9903    0.0000 C   0  0  0  0  0  0  0  0  0  0  0  0
    3.4873  -11.2403    0.0000 C   0  0  0  0  0  0  0  0  0  0  0  0
    4.8576  -11.8504    0.0000 C   0  0  0  0  0  0  0  0  0  0  0  0
    6.0712  -10.9687    0.0000 O   0  0  0  0  0  0  0  0  0  0  0  0
    5.0144  -13.3421    0.0000 N   0  0  0  0  0  0  0  0  0  0  0  0
    6.3847  -13.9522    0.0000 C   0  0  0  0  0  0  0  0  0  0  0  0
    6.5415  -15.4440    0.0000 C   0  0  0  0  0  0  0  0  0  0  0  0
    7.9119  -16.0541    0.0000 C   0  0  0  0  0  0  0  0  0  0  0  0
    9.2822  -16.6642    0.0000 C   0  0  0  0  0  0  0  0  0  0  0  0
    7.5983  -13.0706    0.0000 C   0  0  0  0  0  0  0  0  0  0  0  0
    7.4415  -11.5788    0.0000 O   0  0  0  0  0  0  0  0  0  0  0  0
    8.9686  -13.6807    0.0000 O   0  0  0  0  0  0  0  0  0  0  0  0
  2  1  1  6
  2  3  1  0
  3  4  1  0
  4  5  1  0
  4  6  1  0
  2  7  1  0
  7  8  2  0
  7  9  1  0
  9 10  1  0
 10 11  1  6
 11 12  1  0
 12 13  1  0
 12 14  1  0
 10 15  1  0
 15 16  2  0
 15 17  1  0
 17 18  1  0
 18 19  1  0
 19 20  1  0
 20 21  1  0
 21 22  1  6
 22 23  2  0
 22 24  1  0
 24 25  1  0
 25 26  1  6
 26 27  1  0
 27 28  1  0
 27 29  1  0
 25 30  1  0
 30 31  2  0
 30 32  1  0
 32 33  1  0
 33 34  1  1
 34 35  1  0
 35 36  1  0
 35 37  1  0
 33 38  1  0
 38 39  2  0
 38 40  1  0
 40 41  1  0
 41 42  1  0
 42 43  1  0
 43 44  1  0
 44 45  1  6
 45 46  2  0
 45 47  1  0
 47 48  1  0
 48 49  1  6
 49 50  1  0
 50 51  3  0
 48 52  1  0
 52 53  2  0
 52 54  1  0
 21 17  1  0
 44 40  1  0
M  END
$$$$

     RDKit          2D

 55 56  0  0  0  0  0  0  0  0999 V2000
    1.2760    5.1962    0.0000 N   0  0  0  0  0  0  0  0  0  0  0  0
    0.5260    6.4952    0.0000 C   0  0  0  0  0  0  0  0  0  0  0  0
    2.7760    5.1962    0.0000 C   0  0  0  0  0  0  0  0  0  0  0  0
    3.5260    6.4952    0.0000 C   0  0  0  0  0  0  0  0  0  0  0  0
    2.7760    7.7942    0.0000 C   0  0  0  0  0  0  0  0  0  0  0  0
    3.5260    9.0933    0.0000 C   0  0  0  0  0  0  0  0  0  0  0  0
    1.2760    7.7942    0.0000 C   0  0  0  0  0  0  0  0  0  0  0  0
    3.5260    3.8971    0.0000 C   0  0  0  0  0  0  0  0  0  0  0  0
    5.0260    3.8971    0.0000 O   0  0  0  0  0  0  0  0  0  0  0  0
    2.7760    2.5981    0.0000 N   0  0  0  0  0  0  0  0  0  0  0  0
    3.5260    1.2990    0.0000 C   0  0  0  0  0  0  0  0  0  0  0  0
    5.0260    1.2990    0.0000 C   0  0  0  0  0  0  0  0  0  0  0  0
    5.7760    0.0000    0.0000 C   0  0  0  0  0  0  0  0  0  0  0  0
    7.2760    0.0000    0.0000 C   0  0  0  0  0  0  0  0  0  0  0  0
    5.0260   -1.2990    0.0000 C   0  0  0  0  0  0  0  0  0  0  0  0
    2.7760    0.0000    0.0000 C   0  0  0  0  0  0  0  0  0  0  0  0
    3.5260   -1.2990    0.0000 O   0  0  0  0  0  0  0  0  0  0  0  0
    1.2760    0.0000    0.0000 N   0  0  0  0  0  0  0  0  0  0  0  0
    0.3943    1.2135    0.0000 C   0  0  0  0  0  0  0  0  0  0  0  0
   -1.0323    0.7500    0.0000 C   0  0  0  0  0  0  0  0  0  0  0  0
   -1.0323   -0.7500    0.0000 C   0  0  0  0  0  0  0  0  0  0  0  0
    0.3943   -1.2135    0.0000 C   0  0  0  0  0  0  0  0  0  0  0  0
    0.8578   -2.6401    0.0000 C   0  0  0  0  0  0  0  0  0  0  0  0
    2.3250   -2.9520    0.0000 O   0  0  0  0  0  0  0  0  0  0  0  0
   -0.1459   -3.7548    0.0000 N   0  0  0  0  0  0  0  0  0  0  0  0
    0.3177   -5.1814    0.0000 C   0  0  0  0  0  0  0  0  0  0  0  0
   -0.6860   -6.2961    0.0000 C   0  0  0  0  0  0  0  0  0  0  0  0
   -0.2225   -7.7227    0.0000 C   0  0  0  0  0  0  0  0  0  0  0  0
   -1.2262   -8.8374    0.0000 C   0  0  0  0  0  0  0  0  0  0  0  0
    1.2447   -8.0346    0.0000 C   0  0  0  0  0  0  0  0  0  0  0  0
    1.7849   -5.4933    0.0000 C   0  0  0  0  0  0  0  0  0  0  0  0
    2.7886   -4.3786    0.0000 O   0  0  0  0  0  0  0  0  0  0  0  0
    2.2484   -6.9199    0.0000 N   0  0  0  0  0  0  0  0  0  0  0  0
    3.7156   -7.2317    0.0000 C   0  0  0  0  0  0  0  0  0  0  0  0
    4.7193   -6.1170    0.0000 C   0  0  0  0  0  0  0  0  0  0  0  0
    6.1865   -6.4289    0.0000 C   0  0  0  0  0  0  0  0  0  0  0  0
    7.1902   -5.3142    0.0000 C   0  0  0  0  0  0  0  0  0  0  0  0
    6.6501   -7.8555    0.0000 C   0  0  0  0  0  0  0  0  0  0  0  0
    4.1791   -8.6583    0.0000 C   0  0  0  0  0  0  0  0  0  0  0  0
    5.6464   -8.9702    0.0000 O   0  0  0  0  0  0  0  0  0  0  0  0
    3.1755   -9.7730    0.0000 N   0  0  0  0  0  0  0  0  0  0  0  0
    1.6837   -9.6162    0.0000 C   0  0  0  0  0  0  0  0  0  0  0  0
    1.0736  -10.9866    0.0000 C   0  0  0  0  0  0  0  0  0  0  0  0
    2.1883  -11.9903    0.0000 C   0  0  0  0  0  0  0  0  0  0  0  0
    3.4873  -11.2403    0.0000 C   0  0  0  0  0  0  0  0  0  0  0  0
    4.8576  -11.8504    0.0000 C   0  0  0  0  0  0  0  0  0  0  0  0
    6.0712  -10.9687    0.0000 O   0  0  0  0  0  0  0  0  0  0  0  0
    5.0144  -13.3421    0.0000 N   0  0  0  0  0  0  0  0  0  0  0  0
    6.3847  -13.9522    0.0000 C   0  0  0  0  0  0  0  0  0  0  0  0
    6.5415  -15.4440    0.0000 C   0  0  0  0  0  0  0  0  0  0  0  0
    7.9119  -16.0541    0.0000 C   0  0  0  0  0  0  0  0  0  0  0  0
    9.2822  -16.6642    0.0000 C   0  0  0  0  0  0  0  0  0  0  0  0
    7.5983  -13.0706    0.0000 C   0  0  0  0  0  0  0  0  0  0  0  0
    7.4415  -11.5788    0.0000 O   0  0  0  0  0  0  0  0  0  0  0  0
    8.9686  -13.6807    0.0000 O   0  0  0  0  0  0  0  0  0  0  0  0
  1  2  1  0
  1  3  1  0
  3  4  1  1
  4  5  1  0
  5  6  1  0
  5  7  1  0
  3  8  1  0
  8  9  2  0
  8 10  1  0
 10 11  1  0
 11 12  1  6
 12 13  1  0
 13 14  1  0
 13 15  1  0
 11 16  1  0
 16 17  2  0
 16 18  1  0
 18 19  1  0
 19 20  1  0
 20 21  1  0
 21 22  1  0
 22 23  1  6
 23 24  2  0
 23 25  1  0
 25 26  1  0
 26 27  1  6
 27 28  1  0
 28 29  1  0
 28 30  1  0
 26 31  1  0
 31 32  2  0
 31 33  1  0
 33 34  1  0
 34 35  1  1
 35 36  1  0
 36 37  1  0
 36 38  1  0
 34 39  1  0
 39 40  2  0
 39 41  1  0
 41 42  1  0
 42 43  1  0
 43 44  1  0
 44 45  1  0
 45 46  1  6
 46 47  2  0
 46 48  1  0
 48 49  1  0
 49 50  1  6
 50 51  1  0
 51 52  3  0
 49 53  1  0
 53 54  2  0
 53 55  1  0
 22 18  1  0
 45 41  1  0
M  END
$$$$

     RDKit          2D

 55 56  0  0  0  0  0  0  0  0999 V2000
    1.2760    5.1962    0.0000 N   0  0  0  0  0  0  0  0  0  0  0  0
    0.5260    6.4952    0.0000 C   0  0  0  0  0  0  0  0  0  0  0  0
    2.7760    5.1962    0.0000 C   0  0  0  0  0  0  0  0  0  0  0  0
    3.5260    6.4952    0.0000 C   0  0  0  0  0  0  0  0  0  0  0  0
    2.7760    7.7942    0.0000 C   0  0  0  0  0  0  0  0  0  0  0  0
    3.5260    9.0933    0.0000 C   0  0  0  0  0  0  0  0  0  0  0  0
    1.2760    7.7942    0.0000 C   0  0  0  0  0  0  0  0  0  0  0  0
    3.5260    3.8971    0.0000 C   0  0  0  0  0  0  0  0  0  0  0  0
    5.0260    3.8971    0.0000 O   0  0  0  0  0  0  0  0  0  0  0  0
    2.7760    2.5981    0.0000 N   0  0  0  0  0  0  0  0  0  0  0  0
    3.5260    1.2990    0.0000 C   0  0  0  0  0  0  0  0  0  0  0  0
    5.0260    1.2990    0.0000 C   0  0  0  0  0  0  0  0  0  0  0  0
    5.7760    0.0000    0.0000 C   0  0  0  0  0  0  0  0  0  0  0  0
    7.2760    0.0000    0.0000 C   0  0  0  0  0  0  0  0  0  0  0  0
    5.0260   -1.2990    0.0000 C   0  0  0  0  0  0  0  0  0  0  0  0
    2.7760    0.0000    0.0000 C   0  0  0  0  0  0  0  0  0  0  0  0
    3.5260   -1.2990    0.0000 O   0  0  0  0  0  0  0  0  0  0  0  0
    1.2760    0.0000    0.0000 N   0  0  0  0  0  0  0  0  0  0  0  0
    0.3943    1.2135    0.0000 C   0  0  0  0  0  0  0  0  0  0  0  0
   -1.0323    0.7500    0.0000 C   0  0  0  0  0  0  0  0  0  0  0  0
   -1.0323   -0.7500    0.0000 C   0  0  0  0  0  0  0  0  0  0  0  0
    0.3943   -1.2135    0.0000 C   0  0  0  0  0  0  0  0  0  0  0  0
    0.8578   -2.6401    0.0000 C   0  0  0  0  0  0  0  0  0  0  0  0
    2.3250   -2.9520    0.0000 O   0  0  0  0  0  0  0  0  0  0  0  0
   -0.1459   -3.7548    0.0000 N   0  0  0  0  0  0  0  0  0  0  0  0
    0.3177   -5.1814    0.0000 C   0  0  0  0  0  0  0  0  0  0  0  0
   -0.6860   -6.2961    0.0000 C   0  0  0  0  0  0  0  0  0  0  0  0
   -0.2225   -7.7227    0.0000 C   0  0  0  0  0  0  0  0  0  0  0  0
   -1.2262   -8.8374    0.0000 C   0  0  0  0  0  0  0  0  0  0  0  0
    1.2447   -8.0346    0.0000 C   0  0  0  0  0  0  0  0  0  0  0  0
    1.7849   -5.4933    0.0000 C   0  0  0  0  0  0  0  0  0  0  0  0
    2.7886   -4.3786    0.0000 O   0  0  0  0  0  0  0  0  0  0  0  0
    2.2484   -6.9199    0.0000 N   0  0  0  0  0  0  0  0  0  0  0  0
    3.7156   -7.2317    0.0000 C   0  0  0  0  0  0  0  0  0  0  0  0
    4.7193   -6.1170    0.0000 C   0  0  0  0  0  0  0  0  0  0  0  0
    6.1865   -6.4289    0.0000 C   0  0  0  0  0  0  0  0  0  0  0  0
    7.1902   -5.3142    0.0000 C   0  0  0  0  0  0  0  0  0  0  0  0
    6.6501   -7.8555    0.0000 C   0  0  0  0  0  0  0  0  0  0  0  0
    4.1791   -8.6583    0.0000 C   0  0  0  0  0  0  0  0  0  0  0  0
    5.6464   -8.9702    0.0000 O   0  0  0  0  0  0  0  0  0  0  0  0
    3.1755   -9.7730    0.0000 N   0  0  0  0  0  0  0  0  0  0  0  0
    1.6837   -9.6162    0.0000 C   0  0  0  0  0  0  0  0  0  0  0  0
    1.0736  -10.9866    0.0000 C   0  0  0  0  0  0  0  0  0  0  0  0
    2.1883  -11.9903    0.0000 C   0  0  0  0  0  0  0  0  0  0  0  0
    3.4873  -11.2403    0.0000 C   0  0  0  0  0  0  0  0  0  0  0  0
    4.8576  -11.8504    0.0000 C   0  0  0  0  0  0  0  0  0  0  0  0
    6.0712  -10.9687    0.0000 O   0  0  0  0  0  0  0  0  0  0  0  0
    5.0144  -13.3421    0.0000 N   0  0  0  0  0  0  0  0  0  0  0  0
    6.3847  -13.9522    0.0000 C   0  0  0  0  0  0  0  0  0  0  0  0
    6.5415  -15.4440    0.0000 C   0  0  0  0  0  0  0  0  0  0  0  0
    7.9119  -16.0541    0.0000 C   0  0  0  0  0  0  0  0  0  0  0  0
    9.2822  -16.6642    0.0000 C   0  0  0  0  0  0  0  0  0  0  0  0
    7.5983  -13.0706    0.0000 C   0  0  0  0  0  0  0  0  0  0  0  0
    7.4415  -11.5788    0.0000 O   0  0  0  0  0  0  0  0  0  0  0  0
    8.9686  -13.6807    0.0000 O   0  0  0  0  0  0  0  0  0  0  0  0
  1  2  1  0
  1  3  1  0
  3  4  1  6
  4  5  1  0
  5  6  1  0
  5  7  1  0
  3  8  1  0
  8  9  2  0
  8 10  1  0
 10 11  1  0
 11 12  1  6
 12 13  1  0
 13 14  1  0
 13 15  1  0
 11 16  1  0
 16 17  2  0
 16 18  1  0
 18 19  1  0
 19 20  1  0
 20 21  1  0
 21 22  1  0
 22 23  1  6
 23 24  2  0
 23 25  1  0
 25 26  1  0
 26 27  1  6
 27 28  1  0
 28 29  1  0
 28 30  1  0
 26 31  1  0
 31 32  2  0
 31 33  1  0
 33 34  1  0
 34 35  1  1
 35 36  1  0
 36 37  1  0
 36 38  1  0
 34 39  1  0
 39 40  2  0
 39 41  1  0
 41 42  1  0
 42 43  1  0
 43 44  1  0
 44 45  1  0
 45 46  1  6
 46 47  2  0
 46 48  1  0
 48 49  1  0
 49 50  1  6
 50 51  1  0
 51 52  3  0
 49 53  1  0
 53 54  2  0
 53 55  1  0
 22 18  1  0
 45 41  1  0
M  END
$$$$

     RDKit          2D

 55 56  0  0  0  0  0  0  0  0999 V2000
    8.0260    1.2990    0.0000 N   0  0  0  0  0  0  0  0  0  0  0  0
    7.2760    0.0000    0.0000 C   0  0  0  0  0  0  0  0  0  0  0  0
    8.0260   -1.2990    0.0000 C   0  0  0  0  0  0  0  0  0  0  0  0
    9.5260   -1.2990    0.0000 C   0  0  0  0  0  0  0  0  0  0  0  0
   10.2760   -2.5981    0.0000 C   0  0  0  0  0  0  0  0  0  0  0  0
   10.2760    0.0000    0.0000 C   0  0  0  0  0  0  0  0  0  0  0  0
    5.7760    0.0000    0.0000 C   0  0  0  0  0  0  0  0  0  0  0  0
    5.0260   -1.2990    0.0000 O   0  0  0  0  0  0  0  0  0  0  0  0
    5.0260    1.2990    0.0000 N   0  0  0  0  0  0  0  0  0  0  0  0
    5.7760    2.5981    0.0000 C   0  0  0  0  0  0  0  0  0  0  0  0
    3.5260    1.2990    0.0000 C   0  0  0  0  0  0  0  0  0  0  0  0
    2.7760    2.5981    0.0000 C   0  0  0  0  0  0  0  0  0  0  0  0
    3.5260    3.8971    0.0000 C   0  0  0  0  0  0  0  0  0  0  0  0
    2.7760    5.1962    0.0000 C   0  0  0  0  0  0  0  0  0  0  0  0
    5.0260    3.8971    0.0000 C   0  0  0  0  0  0  0  0  0  0  0  0
    2.7760    0.0000    0.0000 C   0  0  0  0  0  0  0  0  0  0  0  0
    3.5260   -1.2990    0.0000 O   0  0  0  0  0  0  0  0  0  0  0  0
    1.2760    0.0000    0.0000 N   0  0  0  0  0  0  0  0  0  0  0  0
    0.3943    1.2135    0.0000 C   0  0  0  0  0  0  0  0  0  0  0  0
   -1.0323    0.7500    0.0000 C   0  0  0  0  0  0  0  0  0  0  0  0
   -1.0323   -0.7500    0.0000 C   0  0  0  0  0  0  0  0  0  0  0  0
    0.3943   -1.2135    0.0000 C   0  0  0  0  0  0  0  0  0  0  0  0
    0.8578   -2.6401    0.0000 C   0  0  0  0  0  0  0  0  0  0  0  0
    2.3250   -2.9520    0.0000 O   0  0  0  0  0  0  0  0  0  0  0  0
   -0.1459   -3.7548    0.0000 N   0  0  0  0  0  0  0  0  0  0  0  0
    0.3177   -5.1814    0.0000 C   0  0  0  0  0  0  0  0  0  0  0  0
   -0.6860   -6.2961    0.0000 C   0  0  0  0  0  0  0  0  0  0  0  0
   -0.2225   -7.7227    0.0000 C   0  0  0  0  0  0  0  0  0  0  0  0
   -1.2262   -8.8374    0.0000 C   0  0  0  0  0  0  0  0  0  0  0  0
    1.2447   -8.0346    0.0000 C   0  0  0  0  0  0  0  0  0  0  0  0
    1.7849   -5.4933    0.0000 C   0  0  0  0  0  0  0  0  0  0  0  0
    2.7886   -4.3786    0.0000 O   0  0  0  0  0  0  0  0  0  0  0  0
    2.2484   -6.9199    0.0000 N   0  0  0  0  0  0  0  0  0  0  0  0
    3.7156   -7.2317    0.0000 C   0  0  0  0  0  0  0  0  0  0  0  0
    4.1791   -8.6583    0.0000 C   0  0  0  0  0  0  0  0  0  0  0  0
    3.1755   -9.7730    0.0000 C   0  0  0  0  0  0  0  0  0  0  0  0
    3.6390  -11.1996    0.0000 C   0  0  0  0  0  0  0  0  0  0  0  0
    1.7082   -9.4612    0.0000 C   0  0  0  0  0  0  0  0  0  0  0  0
    4.7193   -6.1170    0.0000 C   0  0  0  0  0  0  0  0  0  0  0  0
    4.2558   -4.6904    0.0000 O   0  0  0  0  0  0  0  0  0  0  0  0
    6.1865   -6.4289    0.0000 N   0  0  0  0  0  0  0  0  0  0  0  0
    7.3013   -5.4252    0.0000 C   0  0  0  0  0  0  0  0  0  0  0  0
    8.6003   -6.1752    0.0000 C   0  0  0  0  0  0  0  0  0  0  0  0
    8.2884   -7.6424    0.0000 C   0  0  0  0  0  0  0  0  0  0  0  0
    6.7966   -7.7992    0.0000 C   0  0  0  0  0  0  0  0  0  0  0  0
    6.0466   -9.0982    0.0000 C   0  0  0  0  0  0  0  0  0  0  0  0
    4.5912   -9.4612    0.0000 O   0  0  0  0  0  0  0  0  0  0  0  0
    6.7966  -10.3973    0.0000 N   0  0  0  0  0  0  0  0  0  0  0  0
    6.0466  -11.6963    0.0000 C   0  0  0  0  0  0  0  0  0  0  0  0
    6.7966  -12.9954    0.0000 C   0  0  0  0  0  0  0  0  0  0  0  0
    6.0466  -14.2944    0.0000 C   0  0  0  0  0  0  0  0  0  0  0  0
    5.2966  -15.5934    0.0000 C   0  0  0  0  0  0  0  0  0  0  0  0
    4.5466  -11.6963    0.0000 C   0  0  0  0  0  0  0  0  0  0  0  0
    3.7966  -10.3973    0.0000 O   0  0  0  0  0  0  0  0  0  0  0  0
    3.7966  -12.9954    0.0000 O   0  0  0  0  0  0  0  0  0  0  0  0
  2  1  1  1
  2  3  1  0
  3  4  1  0
  4  5  1  0
  4  6  1  0
  2  7  1  0
  7  8  2  0
  7  9  1  0
  9 10  1  0
  9 11  1  0
 11 12  1  6
 12 13  1  0
 13 14  1  0
 13 15  1  0
 11 16  1  0
 16 17  2  0
 16 18  1  0
 18 19  1  0
 19 20  1  0
 20 21  1  0
 21 22  1  0
 22 23  1  6
 23 24  2  0
 23 25  1  0
 25 26  1  0
 26 27  1  6
 27 28  1  0
 28 29  1  0
 28 30  1  0
 26 31  1  0
 31 32  2  0
 31 33  1  0
 33 34  1  0
 34 35  1  6
 35 36  1  0
 36 37  1  0
 36 38  1  0
 34 39  1  0
 39 40  2  0
 39 41  1  0
 41 42  1  0
 42 43  1  0
 43 44  1  0
 44 45  1  0
 45 46  1  1
 46 47  2  0
 46 48  1  0
 48 49  1  0
 49 50  1  1
 50 51  1  0
 51 52  3  0
 49 53  1  0
 53 54  2  0
 53 55  1  0
 22 18  1  0
 45 41  1  0
M  END
$$$$

     RDKit          2D

 55 56  0  0  0  0  0  0  0  0999 V2000
    8.0260    1.2990    0.0000 N   0  0  0  0  0  0  0  0  0  0  0  0
    7.2760    0.0000    0.0000 C   0  0  0  0  0  0  0  0  0  0  0  0
    8.0260   -1.2990    0.0000 C   0  0  0  0  0  0  0  0  0  0  0  0
    9.5260   -1.2990    0.0000 C   0  0  0  0  0  0  0  0  0  0  0  0
   10.2760   -2.5981    0.0000 C   0  0  0  0  0  0  0  0  0  0  0  0
   10.2760    0.0000    0.0000 C   0  0  0  0  0  0  0  0  0  0  0  0
    5.7760    0.0000    0.0000 C   0  0  0  0  0  0  0  0  0  0  0  0
    5.0260   -1.2990    0.0000 O   0  0  0  0  0  0  0  0  0  0  0  0
    5.0260    1.2990    0.0000 N   0  0  0  0  0  0  0  0  0  0  0  0
    5.7760    2.5981    0.0000 C   0  0  0  0  0  0  0  0  0  0  0  0
    3.5260    1.2990    0.0000 C   0  0  0  0  0  0  0  0  0  0  0  0
    2.7760    2.5981    0.0000 C   0  0  0  0  0  0  0  0  0  0  0  0
    3.5260    3.8971    0.0000 C   0  0  0  0  0  0  0  0  0  0  0  0
    2.7760    5.1962    0.0000 C   0  0  0  0  0  0  0  0  0  0  0  0
    5.0260    3.8971    0.0000 C   0  0  0  0  0  0  0  0  0  0  0  0
    2.7760    0.0000    0.0000 C   0  0  0  0  0  0  0  0  0  0  0  0
    3.5260   -1.2990    0.0000 O   0  0  0  0  0  0  0  0  0  0  0  0
    1.2760    0.0000    0.0000 N   0  0  0  0  0  0  0  0  0  0  0  0
    0.3943    1.2135    0.0000 C   0  0  0  0  0  0  0  0  0  0  0  0
   -1.0323    0.7500    0.0000 C   0  0  0  0  0  0  0  0  0  0  0  0
   -1.0323   -0.7500    0.0000 C   0  0  0  0  0  0  0  0  0  0  0  0
    0.3943   -1.2135    0.0000 C   0  0  0  0  0  0  0  0  0  0  0  0
    0.8578   -2.6401    0.0000 C   0  0  0  0  0  0  0  0  0  0  0  0
    2.3250   -2.9520    0.0000 O   0  0  0  0  0  0  0  0  0  0  0  0
   -0.1459   -3.7548    0.0000 N   0  0  0  0  0  0  0  0  0  0  0  0
    0.3177   -5.1814    0.0000 C   0  0  0  0  0  0  0  0  0  0  0  0
   -0.6860   -6.2961    0.0000 C   0  0  0  0  0  0  0  0  0  0  0  0
   -0.2225   -7.7227    0.0000 C   0  0  0  0  0  0  0  0  0  0  0  0
   -1.2262   -8.8374    0.0000 C   0  0  0  0  0  0  0  0  0  0  0  0
    1.2447   -8.0346    0.0000 C   0  0  0  0  0  0  0  0  0  0  0  0
    1.7849   -5.4933    0.0000 C   0  0  0  0  0  0  0  0  0  0  0  0
    2.7886   -4.3786    0.0000 O   0  0  0  0  0  0  0  0  0  0  0  0
    2.2484   -6.9199    0.0000 N   0  0  0  0  0  0  0  0  0  0  0  0
    3.7156   -7.2317    0.0000 C   0  0  0  0  0  0  0  0  0  0  0  0
    4.1791   -8.6583    0.0000 C   0  0  0  0  0  0  0  0  0  0  0  0
    3.1755   -9.7730    0.0000 C   0  0  0  0  0  0  0  0  0  0  0  0
    3.6390  -11.1996    0.0000 C   0  0  0  0  0  0  0  0  0  0  0  0
    1.7082   -9.4612    0.0000 C   0  0  0  0  0  0  0  0  0  0  0  0
    4.7193   -6.1170    0.0000 C   0  0  0  0  0  0  0  0  0  0  0  0
    4.2558   -4.6904    0.0000 O   0  0  0  0  0  0  0  0  0  0  0  0
    6.1865   -6.4289    0.0000 N   0  0  0  0  0  0  0  0  0  0  0  0
    7.3013   -5.4252    0.0000 C   0  0  0  0  0  0  0  0  0  0  0  0
    8.6003   -6.1752    0.0000 C   0  0  0  0  0  0  0  0  0  0  0  0
    8.2884   -7.6424    0.0000 C   0  0  0  0  0  0  0  0  0  0  0  0
    6.7966   -7.7992    0.0000 C   0  0  0  0  0  0  0  0  0  0  0  0
    6.0466   -9.0982    0.0000 C   0  0  0  0  0  0  0  0  0  0  0  0
    4.5912   -9.4612    0.0000 O   0  0  0  0  0  0  0  0  0  0  0  0
    6.7966  -10.3973    0.0000 N   0  0  0  0  0  0  0  0  0  0  0  0
    6.0466  -11.6963    0.0000 C   0  0  0  0  0  0  0  0  0  0  0  0
    6.7966  -12.9954    0.0000 C   0  0  0  0  0  0  0  0  0  0  0  0
    6.0466  -14.2944    0.0000 C   0  0  0  0  0  0  0  0  0  0  0  0
    5.2966  -15.5934    0.0000 C   0  0  0  0  0  0  0  0  0  0  0  0
    4.5466  -11.6963    0.0000 C   0  0  0  0  0  0  0  0  0  0  0  0
    3.7966  -10.3973    0.0000 O   0  0  0  0  0  0  0  0  0  0  0  0
    3.7966  -12.9954    0.0000 O   0  0  0  0  0  0  0  0  0  0  0  0
  2  1  1  6
  2  3  1  0
  3  4  1  0
  4  5  1  0
  4  6  1  0
  2  7  1  0
  7  8  2  0
  7  9  1  0
  9 10  1  0
  9 11  1  0
 11 12  1  6
 12 13  1  0
 13 14  1  0
 13 15  1  0
 11 16  1  0
 16 17  2  0
 16 18  1  0
 18 19  1  0
 19 20  1  0
 20 21  1  0
 21 22  1  0
 22 23  1  6
 23 24  2  0
 23 25  1  0
 25 26  1  0
 26 27  1  6
 27 28  1  0
 28 29  1  0
 28 30  1  0
 26 31  1  0
 31 32  2  0
 31 33  1  0
 33 34  1  0
 34 35  1  6
 35 36  1  0
 36 37  1  0
 36 38  1  0
 34 39  1  0
 39 40  2  0
 39 41  1  0
 41 42  1  0
 42 43  1  0
 43 44  1  0
 44 45  1  0
 45 46  1  1
 46 47  2  0
 46 48  1  0
 48 49  1  0
 49 50  1  1
 50 51  1  0
 51 52  3  0
 49 53  1  0
 53 54  2  0
 53 55  1  0
 22 18  1  0
 45 41  1  0
M  END
$$$$

     RDKit          2D

 39 39  0  0  0  0  0  0  0  0999 V2000
   -1.7240    5.1962    0.0000 N   0  0  0  0  0  0  0  0  0  0  0  0
   -0.9740    6.4952    0.0000 C   0  0  0  0  0  0  0  0  0  0  0  0
   -1.7240    7.7942    0.0000 C   0  0  0  0  0  0  0  0  0  0  0  0
   -3.2240    7.7942    0.0000 C   0  0  0  0  0  0  0  0  0  0  0  0
   -3.9740    9.0933    0.0000 C   0  0  0  0  0  0  0  0  0  0  0  0
   -3.9740    6.4952    0.0000 C   0  0  0  0  0  0  0  0  0  0  0  0
    0.5260    6.4952    0.0000 C   0  0  0  0  0  0  0  0  0  0  0  0
    1.2760    7.7942    0.0000 O   0  0  0  0  0  0  0  0  0  0  0  0
    1.2760    5.1962    0.0000 N   0  0  0  0  0  0  0  0  0  0  0  0
    2.7760    5.1962    0.0000 C   0  0  0  0  0  0  0  0  0  0  0  0
    3.5260    6.4952    0.0000 C   0  0  0  0  0  0  0  0  0  0  0  0
    5.0260    6.4952    0.0000 C   0  0  0  0  0  0  0  0  0  0  0  0
    5.7760    5.1962    0.0000 C   0  0  0  0  0  0  0  0  0  0  0  0
    5.7760    7.7942    0.0000 C   0  0  0  0  0  0  0  0  0  0  0  0
    3.5260    3.8971    0.0000 C   0  0  0  0  0  0  0  0  0  0  0  0
    5.0260    3.8971    0.0000 O   0  0  0  0  0  0  0  0  0  0  0  0
    2.7760    2.5981    0.0000 N   0  0  0  0  0  0  0  0  0  0  0  0
    3.5260    1.2990    0.0000 C   0  0  0  0  0  0  0  0  0  0  0  0
    5.0260    1.2990    0.0000 C   0  0  0  0  0  0  0  0  0  0  0  0
    5.7760    0.0000    0.0000 C   0  0  0  0  0  0  0  0  0  0  0  0
    5.0260   -1.2990    0.0000 C   0  0  0  0  0  0  0  0  0  0  0  0
    7.2760    0.0000    0.0000 C   0  0  0  0  0  0  0  0  0  0  0  0
    2.7760    0.0000    0.0000 C   0  0  0  0  0  0  0  0  0  0  0  0
    3.5260   -1.2990    0.0000 O   0  0  0  0  0  0  0  0  0  0  0  0
    1.2760    0.0000    0.0000 N   0  0  0  0  0  0  0  0  0  0  0  0
    0.3943    1.2135    0.0000 C   0  0  0  0  0  0  0  0  0  0  0  0
   -1.0323    0.7500    0.0000 C   0  0  0  0  0  0  0  0  0  0  0  0
   -1.0323   -0.7500    0.0000 C   0  0  0  0  0  0  0  0  0  0  0  0
    0.3943   -1.2135    0.0000 C   0  0  0  0  0  0  0  0  0  0  0  0
    0.8578   -2.6401    0.0000 C   0  0  0  0  0  0  0  0  0  0  0  0
    2.3250   -2.9520    0.0000 O   0  0  0  0  0  0  0  0  0  0  0  0
   -0.1459   -3.7548    0.0000 N   0  0  0  0  0  0  0  0  0  0  0  0
    0.3177   -5.1814    0.0000 C   0  0  0  0  0  0  0  0  0  0  0  0
   -0.6860   -6.2961    0.0000 C   0  0  0  0  0  0  0  0  0  0  0  0
   -0.2225   -7.7227    0.0000 C   0  0  0  0  0  0  0  0  0  0  0  0
    0.2410   -9.1493    0.0000 C   0  0  0  0  0  0  0  0  0  0  0  0
    1.7849   -5.4933    0.0000 C   0  0  0  0  0  0  0  0  0  0  0  0
    2.7886   -4.3786    0.0000 O   0  0  0  0  0  0  0  0  0  0  0  0
    2.2484   -6.9199    0.0000 O   0  0  0  0  0  0  0  0  0  0  0  0
  2  1  1  1
  2  3  1  0
  3  4  1  0
  4  5  1  0
  4  6  1  0
  2  7  1  0
  7  8  2  0
  7  9  1  0
  9 10  1  0
 10 11  1  6
 11 12  1  0
 12 13  1  0
 12 14  1  0
 10 15  1  0
 15 16  2  0
 15 17  1  0
 17 18  1  0
 18 19  1  1
 19 20  1  0
 20 21  1  0
 20 22  1  0
 18 23  1  0
 23 24  2  0
 23 25  1  0
 25 26  1  0
 26 27  1  0
 27 28  1  0
 28 29  1  0
 29 30  1  6
 30 31  2  0
 30 32  1  0
 32 33  1  0
 33 34  1  6
 34 35  1  0
 35 36  3  0
 33 37  1  0
 37 38  2  0
 37 39  1  0
 29 25  1  0
M  END
$$$$

     RDKit          2D

 39 39  0  0  0  0  0  0  0  0999 V2000
   -1.7240    5.1962    0.0000 N   0  0  0  0  0  0  0  0  0  0  0  0
   -0.9740    6.4952    0.0000 C   0  0  0  0  0  0  0  0  0  0  0  0
   -1.7240    7.7942    0.0000 C   0  0  0  0  0  0  0  0  0  0  0  0
   -3.2240    7.7942    0.0000 C   0  0  0  0  0  0  0  0  0  0  0  0
   -3.9740    9.0933    0.0000 C   0  0  0  0  0  0  0  0  0  0  0  0
   -3.9740    6.4952    0.0000 C   0  0  0  0  0  0  0  0  0  0  0  0
    0.5260    6.4952    0.0000 C   0  0  0  0  0  0  0  0  0  0  0  0
    1.2760    7.7942    0.0000 O   0  0  0  0  0  0  0  0  0  0  0  0
    1.2760    5.1962    0.0000 N   0  0  0  0  0  0  0  0  0  0  0  0
    2.7760    5.1962    0.0000 C   0  0  0  0  0  0  0  0  0  0  0  0
    3.5260    6.4952    0.0000 C   0  0  0  0  0  0  0  0  0  0  0  0
    5.0260    6.4952    0.0000 C   0  0  0  0  0  0  0  0  0  0  0  0
    5.7760    5.1962    0.0000 C   0  0  0  0  0  0  0  0  0  0  0  0
    5.7760    7.7942    0.0000 C   0  0  0  0  0  0  0  0  0  0  0  0
    3.5260    3.8971    0.0000 C   0  0  0  0  0  0  0  0  0  0  0  0
    5.0260    3.8971    0.0000 O   0  0  0  0  0  0  0  0  0  0  0  0
    2.7760    2.5981    0.0000 N   0  0  0  0  0  0  0  0  0  0  0  0
    3.5260    1.2990    0.0000 C   0  0  0  0  0  0  0  0  0  0  0  0
    5.0260    1.2990    0.0000 C   0  0  0  0  0  0  0  0  0  0  0  0
    5.7760    0.0000    0.0000 C   0  0  0  0  0  0  0  0  0  0  0  0
    5.0260   -1.2990    0.0000 C   0  0  0  0  0  0  0  0  0  0  0  0
    7.2760    0.0000    0.0000 C   0  0  0  0  0  0  0  0  0  0  0  0
    2.7760    0.0000    0.0000 C   0  0  0  0  0  0  0  0  0  0  0  0
    3.5260   -1.2990    0.0000 O   0  0  0  0  0  0  0  0  0  0  0  0
    1.2760    0.0000    0.0000 N   0  0  0  0  0  0  0  0  0  0  0  0
    0.3943    1.2135    0.0000 C   0  0  0  0  0  0  0  0  0  0  0  0
   -1.0323    0.7500    0.0000 C   0  0  0  0  0  0  0  0  0  0  0  0
   -1.0323   -0.7500    0.0000 C   0  0  0  0  0  0  0  0  0  0  0  0
    0.3943   -1.2135    0.0000 C   0  0  0  0  0  0  0  0  0  0  0  0
    0.8578   -2.6401    0.0000 C   0  0  0  0  0  0  0  0  0  0  0  0
    2.3250   -2.9520    0.0000 O   0  0  0  0  0  0  0  0  0  0  0  0
   -0.1459   -3.7548    0.0000 N   0  0  0  0  0  0  0  0  0  0  0  0
    0.3177   -5.1814    0.0000 C   0  0  0  0  0  0  0  0  0  0  0  0
   -0.6860   -6.2961    0.0000 C   0  0  0  0  0  0  0  0  0  0  0  0
   -0.2225   -7.7227    0.0000 C   0  0  0  0  0  0  0  0  0  0  0  0
    0.2410   -9.1493    0.0000 C   0  0  0  0  0  0  0  0  0  0  0  0
    1.7849   -5.4933    0.0000 C   0  0  0  0  0  0  0  0  0  0  0  0
    2.7886   -4.3786    0.0000 O   0  0  0  0  0  0  0  0  0  0  0  0
    2.2484   -6.9199    0.0000 O   0  0  0  0  0  0  0  0  0  0  0  0
  2  1  1  6
  2  3  1  0
  3  4  1  0
  4  5  1  0
  4  6  1  0
  2  7  1  0
  7  8  2  0
  7  9  1  0
  9 10  1  0
 10 11  1  6
 11 12  1  0
 12 13  1  0
 12 14  1  0
 10 15  1  0
 15 16  2  0
 15 17  1  0
 17 18  1  0
 18 19  1  1
 19 20  1  0
 20 21  1  0
 20 22  1  0
 18 23  1  0
 23 24  2  0
 23 25  1  0
 25 26  1  0
 26 27  1  0
 27 28  1  0
 28 29  1  0
 29 30  1  6
 30 31  2  0
 30 32  1  0
 32 33  1  0
 33 34  1  6
 34 35  1  0
 35 36  3  0
 33 37  1  0
 37 38  2  0
 37 39  1  0
 29 25  1  0
M  END
$$$$

     RDKit          2D

 38 38  0  0  0  0  0  0  0  0999 V2000
   -1.7240    5.1962    0.0000 N   0  0  0  0  0  0  0  0  0  0  0  0
   -0.9740    6.4952    0.0000 C   0  0  0  0  0  0  0  0  0  0  0  0
   -1.7240    7.7942    0.0000 C   0  0  0  0  0  0  0  0  0  0  0  0
   -3.2240    7.7942    0.0000 C   0  0  0  0  0  0  0  0  0  0  0  0
   -0.9740    9.0933    0.0000 C   0  0  0  0  0  0  0  0  0  0  0  0
    0.5260    6.4952    0.0000 C   0  0  0  0  0  0  0  0  0  0  0  0
    1.2760    7.7942    0.0000 O   0  0  0  0  0  0  0  0  0  0  0  0
    1.2760    5.1962    0.0000 N   0  0  0  0  0  0  0  0  0  0  0  0
    2.7760    5.1962    0.0000 C   0  0  0  0  0  0  0  0  0  0  0  0
    3.5260    6.4952    0.0000 C   0  0  0  0  0  0  0  0  0  0  0  0
    5.0260    6.4952    0.0000 C   0  0  0  0  0  0  0  0  0  0  0  0
    5.7760    7.7942    0.0000 C   0  0  0  0  0  0  0  0  0  0  0  0
    5.7760    5.1962    0.0000 C   0  0  0  0  0  0  0  0  0  0  0  0
    3.5260    3.8971    0.0000 C   0  0  0  0  0  0  0  0  0  0  0  0
    5.0260    3.8971    0.0000 O   0  0  0  0  0  0  0  0  0  0  0  0
    2.7760    2.5981    0.0000 N   0  0  0  0  0  0  0  0  0  0  0  0
    3.5260    1.2990    0.0000 C   0  0  0  0  0  0  0  0  0  0  0  0
    5.0260    1.2990    0.0000 C   0  0  0  0  0  0  0  0  0  0  0  0
    5.7760    0.0000    0.0000 C   0  0  0  0  0  0  0  0  0  0  0  0
    7.2760    0.0000    0.0000 C   0  0  0  0  0  0  0  0  0  0  0  0
    5.0260   -1.2990    0.0000 C   0  0  0  0  0  0  0  0  0  0  0  0
    2.7760    0.0000    0.0000 C   0  0  0  0  0  0  0  0  0  0  0  0
    3.5260   -1.2990    0.0000 O   0  0  0  0  0  0  0  0  0  0  0  0
    1.2760    0.0000    0.0000 N   0  0  0  0  0  0  0  0  0  0  0  0
    0.3943    1.2135    0.0000 C   0  0  0  0  0  0  0  0  0  0  0  0
   -1.0323    0.7500    0.0000 C   0  0  0  0  0  0  0  0  0  0  0  0
   -1.0323   -0.7500    0.0000 C   0  0  0  0  0  0  0  0  0  0  0  0
    0.3943   -1.2135    0.0000 C   0  0  0  0  0  0  0  0  0  0  0  0
    0.8578   -2.6401    0.0000 C   0  0  0  0  0  0  0  0  0  0  0  0
    2.3250   -2.9520    0.0000 O   0  0  0  0  0  0  0  0  0  0  0  0
   -0.1459   -3.7548    0.0000 N   0  0  0  0  0  0  0  0  0  0  0  0
    0.3177   -5.1814    0.0000 C   0  0  0  0  0  0  0  0  0  0  0  0
   -0.6860   -6.2961    0.0000 C   0  0  0  0  0  0  0  0  0  0  0  0
   -0.2225   -7.7227    0.0000 C   0  0  0  0  0  0  0  0  0  0  0  0
    0.2410   -9.1493    0.0000 C   0  0  0  0  0  0  0  0  0  0  0  0
    1.7849   -5.4933    0.0000 C   0  0  0  0  0  0  0  0  0  0  0  0
    2.7886   -4.3786    0.0000 O   0  0  0  0  0  0  0  0  0  0  0  0
    2.2484   -6.9199    0.0000 O   0  0  0  0  0  0  0  0  0  0  0  0
  2  1  1  1
  2  3  1  0
  3  4  1  0
  3  5  1  0
  2  6  1  0
  6  7  2  0
  6  8  1  0
  8  9  1  0
  9 10  1  6
 10 11  1  0
 11 12  1  0
 11 13  1  0
  9 14  1  0
 14 15  2  0
 14 16  1  0
 16 17  1  0
 17 18  1  1
 18 19  1  0
 19 20  1  0
 19 21  1  0
 17 22  1  0
 22 23  2  0
 22 24  1  0
 24 25  1  0
 25 26  1  0
 26 27  1  0
 27 28  1  0
 28 29  1  6
 29 30  2  0
 29 31  1  0
 31 32  1  0
 32 33  1  6
 33 34  1  0
 34 35  3  0
 32 36  1  0
 36 37  2  0
 36 38  1  0
 28 24  1  0
M  END
$$$$

     RDKit          2D

 38 38  0  0  0  0  0  0  0  0999 V2000
   -1.7240    5.1962    0.0000 N   0  0  0  0  0  0  0  0  0  0  0  0
   -0.9740    6.4952    0.0000 C   0  0  0  0  0  0  0  0  0  0  0  0
   -1.7240    7.7942    0.0000 C   0  0  0  0  0  0  0  0  0  0  0  0
   -3.2240    7.7942    0.0000 C   0  0  0  0  0  0  0  0  0  0  0  0
   -0.9740    9.0933    0.0000 C   0  0  0  0  0  0  0  0  0  0  0  0
    0.5260    6.4952    0.0000 C   0  0  0  0  0  0  0  0  0  0  0  0
    1.2760    7.7942    0.0000 O   0  0  0  0  0  0  0  0  0  0  0  0
    1.2760    5.1962    0.0000 N   0  0  0  0  0  0  0  0  0  0  0  0
    2.7760    5.1962    0.0000 C   0  0  0  0  0  0  0  0  0  0  0  0
    3.5260    6.4952    0.0000 C   0  0  0  0  0  0  0  0  0  0  0  0
    5.0260    6.4952    0.0000 C   0  0  0  0  0  0  0  0  0  0  0  0
    5.7760    7.7942    0.0000 C   0  0  0  0  0  0  0  0  0  0  0  0
    5.7760    5.1962    0.0000 C   0  0  0  0  0  0  0  0  0  0  0  0
    3.5260    3.8971    0.0000 C   0  0  0  0  0  0  0  0  0  0  0  0
    5.0260    3.8971    0.0000 O   0  0  0  0  0  0  0  0  0  0  0  0
    2.7760    2.5981    0.0000 N   0  0  0  0  0  0  0  0  0  0  0  0
    3.5260    1.2990    0.0000 C   0  0  0  0  0  0  0  0  0  0  0  0
    5.0260    1.2990    0.0000 C   0  0  0  0  0  0  0  0  0  0  0  0
    5.7760    0.0000    0.0000 C   0  0  0  0  0  0  0  0  0  0  0  0
    7.2760    0.0000    0.0000 C   0  0  0  0  0  0  0  0  0  0  0  0
    5.0260   -1.2990    0.0000 C   0  0  0  0  0  0  0  0  0  0  0  0
    2.7760    0.0000    0.0000 C   0  0  0  0  0  0  0  0  0  0  0  0
    3.5260   -1.2990    0.0000 O   0  0  0  0  0  0  0  0  0  0  0  0
    1.2760    0.0000    0.0000 N   0  0  0  0  0  0  0  0  0  0  0  0
    0.3943    1.2135    0.0000 C   0  0  0  0  0  0  0  0  0  0  0  0
   -1.0323    0.7500    0.0000 C   0  0  0  0  0  0  0  0  0  0  0  0
   -1.0323   -0.7500    0.0000 C   0  0  0  0  0  0  0  0  0  0  0  0
    0.3943   -1.2135    0.0000 C   0  0  0  0  0  0  0  0  0  0  0  0
    0.8578   -2.6401    0.0000 C   0  0  0  0  0  0  0  0  0  0  0  0
    2.3250   -2.9520    0.0000 O   0  0  0  0  0  0  0  0  0  0  0  0
   -0.1459   -3.7548    0.0000 N   0  0  0  0  0  0  0  0  0  0  0  0
    0.3177   -5.1814    0.0000 C   0  0  0  0  0  0  0  0  0  0  0  0
   -0.6860   -6.2961    0.0000 C   0  0  0  0  0  0  0  0  0  0  0  0
   -0.2225   -7.7227    0.0000 C   0  0  0  0  0  0  0  0  0  0  0  0
    0.2410   -9.1493    0.0000 C   0  0  0  0  0  0  0  0  0  0  0  0
    1.7849   -5.4933    0.0000 C   0  0  0  0  0  0  0  0  0  0  0  0
    2.7886   -4.3786    0.0000 O   0  0  0  0  0  0  0  0  0  0  0  0
    2.2484   -6.9199    0.0000 O   0  0  0  0  0  0  0  0  0  0  0  0
  2  1  1  6
  2  3  1  0
  3  4  1  0
  3  5  1  0
  2  6  1  0
  6  7  2  0
  6  8  1  0
  8  9  1  0
  9 10  1  6
 10 11  1  0
 11 12  1  0
 11 13  1  0
  9 14  1  0
 14 15  2  0
 14 16  1  0
 16 17  1  0
 17 18  1  1
 18 19  1  0
 19 20  1  0
 19 21  1  0
 17 22  1  0
 22 23  2  0
 22 24  1  0
 24 25  1  0
 25 26  1  0
 26 27  1  0
 27 28  1  0
 28 29  1  6
 29 30  2  0
 29 31  1  0
 31 32  1  0
 32 33  1  6
 33 34  1  0
 34 35  3  0
 32 36  1  0
 36 37  2  0
 36 38  1  0
 28 24  1  0
M  END
$$$$

     RDKit          2D

 40 40  0  0  0  0  0  0  0  0999 V2000
   -1.7240    5.1962    0.0000 N   0  0  0  0  0  0  0  0  0  0  0  0
   -3.2240    5.1962    0.0000 C   0  0  0  0  0  0  0  0  0  0  0  0
   -0.9740    6.4952    0.0000 C   0  0  0  0  0  0  0  0  0  0  0  0
   -1.7240    7.7942    0.0000 C   0  0  0  0  0  0  0  0  0  0  0  0
   -3.2240    7.7942    0.0000 C   0  0  0  0  0  0  0  0  0  0  0  0
   -3.9740    9.0933    0.0000 C   0  0  0  0  0  0  0  0  0  0  0  0
   -3.9740    6.4952    0.0000 C   0  0  0  0  0  0  0  0  0  0  0  0
    0.5260    6.4952    0.0000 C   0  0  0  0  0  0  0  0  0  0  0  0
    1.2760    7.7942    0.0000 O   0  0  0  0  0  0  0  0  0  0  0  0
    1.2760    5.1962    0.0000 N   0  0  0  0  0  0  0  0  0  0  0  0
    2.7760    5.1962    0.0000 C   0  0  0  0  0  0  0  0  0  0  0  0
    3.5260    6.4952    0.0000 C   0  0  0  0  0  0  0  0  0  0  0  0
    5.0260    6.4952    0.0000 C   0  0  0  0  0  0  0  0  0  0  0  0
    5.7760    5.1962    0.0000 C   0  0  0  0  0  0  0  0  0  0  0  0
    5.7760    7.7942    0.0000 C   0  0  0  0  0  0  0  0  0  0  0  0
    3.5260    3.8971    0.0000 C   0  0  0  0  0  0  0  0  0  0  0  0
    5.0260    3.8971    0.0000 O   0  0  0  0  0  0  0  0  0  0  0  0
    2.7760    2.5981    0.0000 N   0  0  0  0  0  0  0  0  0  0  0  0
    3.5260    1.2990    0.0000 C   0  0  0  0  0  0  0  0  0  0  0  0
    5.0260    1.2990    0.0000 C   0  0  0  0  0  0  0  0  0  0  0  0
    5.7760    0.0000    0.0000 C   0  0  0  0  0  0  0  0  0  0  0  0
    7.2760    0.0000    0.0000 C   0  0  0  0  0  0  0  0  0  0  0  0
    5.0260   -1.2990    0.0000 C   0  0  0  0  0  0  0  0  0  0  0  0
    2.7760    0.0000    0.0000 C   0  0  0  0  0  0  0  0  0  0  0  0
    3.5260   -1.2990    0.0000 O   0  0  0  0  0  0  0  0  0  0  0  0
    1.2760    0.0000    0.0000 N   0  0  0  0  0  0  0  0  0  0  0  0
    0.3943    1.2135    0.0000 C   0  0  0  0  0  0  0  0  0  0  0  0
   -1.0323    0.7500    0.0000 C   0  0  0  0  0  0  0  0  0  0  0  0
   -1.0323   -0.7500    0.0000 C   0  0  0  0  0  0  0  0  0  0  0  0
    0.3943   -1.2135    0.0000 C   0  0  0  0  0  0  0  0  0  0  0  0
    0.8578   -2.6401    0.0000 C   0  0  0  0  0  0  0  0  0  0  0  0
    2.3250   -2.9520    0.0000 O   0  0  0  0  0  0  0  0  0  0  0  0
   -0.1459   -3.7548    0.0000 N   0  0  0  0  0  0  0  0  0  0  0  0
    0.3177   -5.1814    0.0000 C   0  0  0  0  0  0  0  0  0  0  0  0
   -0.6860   -6.2961    0.0000 C   0  0  0  0  0  0  0  0  0  0  0  0
   -0.2225   -7.7227    0.0000 C   0  0  0  0  0  0  0  0  0  0  0  0
    0.2410   -9.1493    0.0000 C   0  0  0  0  0  0  0  0  0  0  0  0
    1.7849   -5.4933    0.0000 C   0  0  0  0  0  0  0  0  0  0  0  0
    2.7886   -4.3786    0.0000 O   0  0  0  0  0  0  0  0  0  0  0  0
    2.2484   -6.9199    0.0000 O   0  0  0  0  0  0  0  0  0  0  0  0
  1  2  1  0
  1  3  1  0
  3  4  1  1
  4  5  1  0
  5  6  1  0
  5  7  1  0
  3  8  1  0
  8  9  2  0
  8 10  1  0
 10 11  1  0
 11 12  1  6
 12 13  1  0
 13 14  1  0
 13 15  1  0
 11 16  1  0
 16 17  2  0
 16 18  1  0
 18 19  1  0
 19 20  1  1
 20 21  1  0
 21 22  1  0
 21 23  1  0
 19 24  1  0
 24 25  2  0
 24 26  1  0
 26 27  1  0
 27 28  1  0
 28 29  1  0
 29 30  1  0
 30 31  1  6
 31 32  2  0
 31 33  1  0
 33 34  1  0
 34 35  1  6
 35 36  1  0
 36 37  3  0
 34 38  1  0
 38 39  2  0
 38 40  1  0
 30 26  1  0
M  END
$$$$

     RDKit          2D

 40 40  0  0  0  0  0  0  0  0999 V2000
   -1.7240    5.1962    0.0000 N   0  0  0  0  0  0  0  0  0  0  0  0
   -3.2240    5.1962    0.0000 C   0  0  0  0  0  0  0  0  0  0  0  0
   -0.9740    6.4952    0.0000 C   0  0  0  0  0  0  0  0  0  0  0  0
   -1.7240    7.7942    0.0000 C   0  0  0  0  0  0  0  0  0  0  0  0
   -3.2240    7.7942    0.0000 C   0  0  0  0  0  0  0  0  0  0  0  0
   -3.9740    9.0933    0.0000 C   0  0  0  0  0  0  0  0  0  0  0  0
   -3.9740    6.4952    0.0000 C   0  0  0  0  0  0  0  0  0  0  0  0
    0.5260    6.4952    0.0000 C   0  0  0  0  0  0  0  0  0  0  0  0
    1.2760    7.7942    0.0000 O   0  0  0  0  0  0  0  0  0  0  0  0
    1.2760    5.1962    0.0000 N   0  0  0  0  0  0  0  0  0  0  0  0
    2.7760    5.1962    0.0000 C   0  0  0  0  0  0  0  0  0  0  0  0
    3.5260    6.4952    0.0000 C   0  0  0  0  0  0  0  0  0  0  0  0
    5.0260    6.4952    0.0000 C   0  0  0  0  0  0  0  0  0  0  0  0
    5.7760    5.1962    0.0000 C   0  0  0  0  0  0  0  0  0  0  0  0
    5.7760    7.7942    0.0000 C   0  0  0  0  0  0  0  0  0  0  0  0
    3.5260    3.8971    0.0000 C   0  0  0  0  0  0  0  0  0  0  0  0
    5.0260    3.8971    0.0000 O   0  0  0  0  0  0  0  0  0  0  0  0
    2.7760    2.5981    0.0000 N   0  0  0  0  0  0  0  0  0  0  0  0
    3.5260    1.2990    0.0000 C   0  0  0  0  0  0  0  0  0  0  0  0
    5.0260    1.2990    0.0000 C   0  0  0  0  0  0  0  0  0  0  0  0
    5.7760    0.0000    0.0000 C   0  0  0  0  0  0  0  0  0  0  0  0
    7.2760    0.0000    0.0000 C   0  0  0  0  0  0  0  0  0  0  0  0
    5.0260   -1.2990    0.0000 C   0  0  0  0  0  0  0  0  0  0  0  0
    2.7760    0.0000    0.0000 C   0  0  0  0  0  0  0  0  0  0  0  0
    3.5260   -1.2990    0.0000 O   0  0  0  0  0  0  0  0  0  0  0  0
    1.2760    0.0000    0.0000 N   0  0  0  0  0  0  0  0  0  0  0  0
    0.3943    1.2135    0.0000 C   0  0  0  0  0  0  0  0  0  0  0  0
   -1.0323    0.7500    0.0000 C   0  0  0  0  0  0  0  0  0  0  0  0
   -1.0323   -0.7500    0.0000 C   0  0  0  0  0  0  0  0  0  0  0  0
    0.3943   -1.2135    0.0000 C   0  0  0  0  0  0  0  0  0  0  0  0
    0.8578   -2.6401    0.0000 C   0  0  0  0  0  0  0  0  0  0  0  0
    2.3250   -2.9520    0.0000 O   0  0  0  0  0  0  0  0  0  0  0  0
   -0.1459   -3.7548    0.0000 N   0  0  0  0  0  0  0  0  0  0  0  0
    0.3177   -5.1814    0.0000 C   0  0  0  0  0  0  0  0  0  0  0  0
   -0.6860   -6.2961    0.0000 C   0  0  0  0  0  0  0  0  0  0  0  0
   -0.2225   -7.7227    0.0000 C   0  0  0  0  0  0  0  0  0  0  0  0
    0.2410   -9.1493    0.0000 C   0  0  0  0  0  0  0  0  0  0  0  0
    1.7849   -5.4933    0.0000 C   0  0  0  0  0  0  0  0  0  0  0  0
    2.7886   -4.3786    0.0000 O   0  0  0  0  0  0  0  0  0  0  0  0
    2.2484   -6.9199    0.0000 O   0  0  0  0  0  0  0  0  0  0  0  0
  1  2  1  0
  1  3  1  0
  3  4  1  6
  4  5  1  0
  5  6  1  0
  5  7  1  0
  3  8  1  0
  8  9  2  0
  8 10  1  0
 10 11  1  0
 11 12  1  6
 12 13  1  0
 13 14  1  0
 13 15  1  0
 11 16  1  0
 16 17  2  0
 16 18  1  0
 18 19  1  0
 19 20  1  1
 20 21  1  0
 21 22  1  0
 21 23  1  0
 19 24  1  0
 24 25  2  0
 24 26  1  0
 26 27  1  0
 27 28  1  0
 28 29  1  0
 29 30  1  0
 30 31  1  6
 31 32  2  0
 31 33  1  0
 33 34  1  0
 34 35  1  6
 35 36  1  0
 36 37  3  0
 34 38  1  0
 38 39  2  0
 38 40  1  0
 30 26  1  0
M  END
$$$$

     RDKit          2D

 42 43  0  0  0  0  0  0  0  0999 V2000
   -0.7500   -3.8971    0.0000 N   0  0  0  0  0  0  0  0  0  0  0  0
    0.7500   -3.8971    0.0000 C   0  0  0  0  0  0  0  0  0  0  0  0
    1.5000   -2.5981    0.0000 C   0  0  0  0  0  0  0  0  0  0  0  0
    0.7500   -1.2990    0.0000 C   0  0  0  0  0  0  0  0  0  0  0  0
    1.5000    0.0000    0.0000 C   0  0  0  0  0  0  0  0  0  0  0  0
    0.7500    1.2990    0.0000 C   0  0  0  0  0  0  0  0  0  0  0  0
   -0.7500    1.2990    0.0000 C   0  0  0  0  0  0  0  0  0  0  0  0
   -1.5000    0.0000    0.0000 C   0  0  0  0  0  0  0  0  0  0  0  0
   -0.7500   -1.2990    0.0000 C   0  0  0  0  0  0  0  0  0  0  0  0
    1.5000   -5.1962    0.0000 C   0  0  0  0  0  0  0  0  0  0  0  0
    3.0000   -5.1962    0.0000 O   0  0  0  0  0  0  0  0  0  0  0  0
    0.7500   -6.4952    0.0000 N   0  0  0  0  0  0  0  0  0  0  0  0
    1.5000   -7.7942    0.0000 C   0  0  0  0  0  0  0  0  0  0  0  0
    0.7500   -9.0933    0.0000 C   0  0  0  0  0  0  0  0  0  0  0  0
    1.5000  -10.3923    0.0000 C   0  0  0  0  0  0  0  0  0  0  0  0
    0.7500  -11.6913    0.0000 C   0  0  0  0  0  0  0  0  0  0  0  0
    3.0000  -10.3923    0.0000 C   0  0  0  0  0  0  0  0  0  0  0  0
    3.0000   -7.7942    0.0000 C   0  0  0  0  0  0  0  0  0  0  0  0
    3.7500   -6.4952    0.0000 O   0  0  0  0  0  0  0  0  0  0  0  0
    3.7500   -9.0933    0.0000 N   0  0  0  0  0  0  0  0  0  0  0  0
    5.2500   -9.0933    0.0000 C   0  0  0  0  0  0  0  0  0  0  0  0
    6.0000  -10.3923    0.0000 C   0  0  0  0  0  0  0  0  0  0  0  0
    5.2500  -11.6913    0.0000 C   0  0  0  0  0  0  0  0  0  0  0  0
    6.0000  -12.9904    0.0000 C   0  0  0  0  0  0  0  0  0  0  0  0
    3.7500  -11.6913    0.0000 C   0  0  0  0  0  0  0  0  0  0  0  0
    6.0000   -7.7942    0.0000 C   0  0  0  0  0  0  0  0  0  0  0  0
    5.2500   -6.4952    0.0000 O   0  0  0  0  0  0  0  0  0  0  0  0
    7.5000   -7.7942    0.0000 N   0  0  0  0  0  0  0  0  0  0  0  0
    8.3817   -9.0078    0.0000 C   0  0  0  0  0  0  0  0  0  0  0  0
    9.8083   -8.5442    0.0000 C   0  0  0  0  0  0  0  0  0  0  0  0
    9.8083   -7.0442    0.0000 C   0  0  0  0  0  0  0  0  0  0  0  0
    8.3817   -6.5807    0.0000 C   0  0  0  0  0  0  0  0  0  0  0  0
    7.9182   -5.1541    0.0000 C   0  0  0  0  0  0  0  0  0  0  0  0
    6.4509   -4.8423    0.0000 O   0  0  0  0  0  0  0  0  0  0  0  0
    8.9218   -4.0394    0.0000 N   0  0  0  0  0  0  0  0  0  0  0  0
    8.4583   -2.6128    0.0000 C   0  0  0  0  0  0  0  0  0  0  0  0
    9.4620   -1.4981    0.0000 C   0  0  0  0  0  0  0  0  0  0  0  0
    8.9985   -0.0715    0.0000 C   0  0  0  0  0  0  0  0  0  0  0  0
    8.5350    1.3551    0.0000 C   0  0  0  0  0  0  0  0  0  0  0  0
    6.9911   -2.3009    0.0000 C   0  0  0  0  0  0  0  0  0  0  0  0
    5.9874   -3.4157    0.0000 O   0  0  0  0  0  0  0  0  0  0  0  0
    6.5276   -0.8744    0.0000 O   0  0  0  0  0  0  0  0  0  0  0  0
  2  1  1  1
  2  3  1  0
  3  4  1  0
  4  5  2  0
  5  6  1  0
  6  7  2  0
  7  8  1  0
  8  9  2  0
  2 10  1  0
 10 11  2  0
 10 12  1  0
 12 13  1  0
 13 14  1  1
 14 15  1  0
 15 16  1  0
 15 17  1  0
 13 18  1  0
 18 19  2  0
 18 20  1  0
 20 21  1  0
 21 22  1  6
 22 23  1  0
 23 24  1  0
 23 25  1  0
 21 26  1  0
 26 27  2  0
 26 28  1  0
 28 29  1  0
 29 30  1  0
 30 31  1  0
 31 32  1  0
 32 33  1  6
 33 34  2  0
 33 35  1  0
 35 36  1  0
 36 37  1  6
 37 38  1  0
 38 39  3  0
 36 40  1  0
 40 41  2  0
 40 42  1  0
  9  4  1  0
 32 28  1  0
M  END
$$$$

     RDKit          2D

 42 43  0  0  0  0  0  0  0  0999 V2000
   -0.7500   -3.8971    0.0000 N   0  0  0  0  0  0  0  0  0  0  0  0
    0.7500   -3.8971    0.0000 C   0  0  0  0  0  0  0  0  0  0  0  0
    1.5000   -2.5981    0.0000 C   0  0  0  0  0  0  0  0  0  0  0  0
    0.7500   -1.2990    0.0000 C   0  0  0  0  0  0  0  0  0  0  0  0
    1.5000    0.0000    0.0000 C   0  0  0  0  0  0  0  0  0  0  0  0
    0.7500    1.2990    0.0000 C   0  0  0  0  0  0  0  0  0  0  0  0
   -0.7500    1.2990    0.0000 C   0  0  0  0  0  0  0  0  0  0  0  0
   -1.5000    0.0000    0.0000 C   0  0  0  0  0  0  0  0  0  0  0  0
   -0.7500   -1.2990    0.0000 C   0  0  0  0  0  0  0  0  0  0  0  0
    1.5000   -5.1962    0.0000 C   0  0  0  0  0  0  0  0  0  0  0  0
    3.0000   -5.1962    0.0000 O   0  0  0  0  0  0  0  0  0  0  0  0
    0.7500   -6.4952    0.0000 N   0  0  0  0  0  0  0  0  0  0  0  0
    1.5000   -7.7942    0.0000 C   0  0  0  0  0  0  0  0  0  0  0  0
    0.7500   -9.0933    0.0000 C   0  0  0  0  0  0  0  0  0  0  0  0
    1.5000  -10.3923    0.0000 C   0  0  0  0  0  0  0  0  0  0  0  0
    0.7500  -11.6913    0.0000 C   0  0  0  0  0  0  0  0  0  0  0  0
    3.0000  -10.3923    0.0000 C   0  0  0  0  0  0  0  0  0  0  0  0
    3.0000   -7.7942    0.0000 C   0  0  0  0  0  0  0  0  0  0  0  0
    3.7500   -6.4952    0.0000 O   0  0  0  0  0  0  0  0  0  0  0  0
    3.7500   -9.0933    0.0000 N   0  0  0  0  0  0  0  0  0  0  0  0
    5.2500   -9.0933    0.0000 C   0  0  0  0  0  0  0  0  0  0  0  0
    6.0000  -10.3923    0.0000 C   0  0  0  0  0  0  0  0  0  0  0  0
    5.2500  -11.6913    0.0000 C   0  0  0  0  0  0  0  0  0  0  0  0
    6.0000  -12.9904    0.0000 C   0  0  0  0  0  0  0  0  0  0  0  0
    3.7500  -11.6913    0.0000 C   0  0  0  0  0  0  0  0  0  0  0  0
    6.0000   -7.7942    0.0000 C   0  0  0  0  0  0  0  0  0  0  0  0
    5.2500   -6.4952    0.0000 O   0  0  0  0  0  0  0  0  0  0  0  0
    7.5000   -7.7942    0.0000 N   0  0  0  0  0  0  0  0  0  0  0  0
    8.3817   -9.0078    0.0000 C   0  0  0  0  0  0  0  0  0  0  0  0
    9.8083   -8.5442    0.0000 C   0  0  0  0  0  0  0  0  0  0  0  0
    9.8083   -7.0442    0.0000 C   0  0  0  0  0  0  0  0  0  0  0  0
    8.3817   -6.5807    0.0000 C   0  0  0  0  0  0  0  0  0  0  0  0
    7.9182   -5.1541    0.0000 C   0  0  0  0  0  0  0  0  0  0  0  0
    6.4509   -4.8423    0.0000 O   0  0  0  0  0  0  0  0  0  0  0  0
    8.9218   -4.0394    0.0000 N   0  0  0  0  0  0  0  0  0  0  0  0
    8.4583   -2.6128    0.0000 C   0  0  0  0  0  0  0  0  0  0  0  0
    9.4620   -1.4981    0.0000 C   0  0  0  0  0  0  0  0  0  0  0  0
    8.9985   -0.0715    0.0000 C   0  0  0  0  0  0  0  0  0  0  0  0
    8.5350    1.3551    0.0000 C   0  0  0  0  0  0  0  0  0  0  0  0
    6.9911   -2.3009    0.0000 C   0  0  0  0  0  0  0  0  0  0  0  0
    5.9874   -3.4157    0.0000 O   0  0  0  0  0  0  0  0  0  0  0  0
    6.5276   -0.8744    0.0000 O   0  0  0  0  0  0  0  0  0  0  0  0
  2  1  1  6
  2  3  1  0
  3  4  1  0
  4  5  2  0
  5  6  1  0
  6  7  2  0
  7  8  1  0
  8  9  2  0
  2 10  1  0
 10 11  2  0
 10 12  1  0
 12 13  1  0
 13 14  1  1
 14 15  1  0
 15 16  1  0
 15 17  1  0
 13 18  1  0
 18 19  2  0
 18 20  1  0
 20 21  1  0
 21 22  1  6
 22 23  1  0
 23 24  1  0
 23 25  1  0
 21 26  1  0
 26 27  2  0
 26 28  1  0
 28 29  1  0
 29 30  1  0
 30 31  1  0
 31 32  1  0
 32 33  1  6
 33 34  2  0
 33 35  1  0
 35 36  1  0
 36 37  1  6
 37 38  1  0
 38 39  3  0
 36 40  1  0
 40 41  2  0
 40 42  1  0
  9  4  1  0
 32 28  1  0
M  END
$$$$

     RDKit          2D

 43 44  0  0  0  0  0  0  0  0999 V2000
   -0.7500   -3.8971    0.0000 N   0  0  0  0  0  0  0  0  0  0  0  0
   -1.5000   -5.1962    0.0000 C   0  0  0  0  0  0  0  0  0  0  0  0
    0.7500   -3.8971    0.0000 C   0  0  0  0  0  0  0  0  0  0  0  0
    1.5000   -2.5981    0.0000 C   0  0  0  0  0  0  0  0  0  0  0  0
    0.7500   -1.2990    0.0000 C   0  0  0  0  0  0  0  0  0  0  0  0
    1.5000    0.0000    0.0000 C   0  0  0  0  0  0  0  0  0  0  0  0
    0.7500    1.2990    0.0000 C   0  0  0  0  0  0  0  0  0  0  0  0
   -0.7500    1.2990    0.0000 C   0  0  0  0  0  0  0  0  0  0  0  0
   -1.5000    0.0000    0.0000 C   0  0  0  0  0  0  0  0  0  0  0  0
   -0.7500   -1.2990    0.0000 C   0  0  0  0  0  0  0  0  0  0  0  0
    1.5000   -5.1962    0.0000 C   0  0  0  0  0  0  0  0  0  0  0  0
    3.0000   -5.1962    0.0000 O   0  0  0  0  0  0  0  0  0  0  0  0
    0.7500   -6.4952    0.0000 N   0  0  0  0  0  0  0  0  0  0  0  0
    1.5000   -7.7942    0.0000 C   0  0  0  0  0  0  0  0  0  0  0  0
    0.7500   -9.0933    0.0000 C   0  0  0  0  0  0  0  0  0  0  0  0
    1.5000  -10.3923    0.0000 C   0  0  0  0  0  0  0  0  0  0  0  0
    0.7500  -11.6913    0.0000 C   0  0  0  0  0  0  0  0  0  0  0  0
    3.0000  -10.3923    0.0000 C   0  0  0  0  0  0  0  0  0  0  0  0
    3.0000   -7.7942    0.0000 C   0  0  0  0  0  0  0  0  0  0  0  0
    3.7500   -6.4952    0.0000 O   0  0  0  0  0  0  0  0  0  0  0  0
    3.7500   -9.0933    0.0000 N   0  0  0  0  0  0  0  0  0  0  0  0
    5.2500   -9.0933    0.0000 C   0  0  0  0  0  0  0  0  0  0  0  0
    6.0000  -10.3923    0.0000 C   0  0  0  0  0  0  0  0  0  0  0  0
    5.2500  -11.6913    0.0000 C   0  0  0  0  0  0  0  0  0  0  0  0
    6.0000  -12.9904    0.0000 C   0  0  0  0  0  0  0  0  0  0  0  0
    3.7500  -11.6913    0.0000 C   0  0  0  0  0  0  0  0  0  0  0  0
    6.0000   -7.7942    0.0000 C   0  0  0  0  0  0  0  0  0  0  0  0
    5.2500   -6.4952    0.0000 O   0  0  0  0  0  0  0  0  0  0  0  0
    7.5000   -7.7942    0.0000 N   0  0  0  0  0  0  0  0  0  0  0  0
    8.3817   -9.0078    0.0000 C   0  0  0  0  0  0  0  0  0  0  0  0
    9.8083   -8.5442    0.0000 C   0  0  0  0  0  0  0  0  0  0  0  0
    9.8083   -7.0442    0.0000 C   0  0  0  0  0  0  0  0  0  0  0  0
    8.3817   -6.5807    0.0000 C   0  0  0  0  0  0  0  0  0  0  0  0
    7.9182   -5.1541    0.0000 C   0  0  0  0  0  0  0  0  0  0  0  0
    6.4509   -4.8423    0.0000 O   0  0  0  0  0  0  0  0  0  0  0  0
    8.9218   -4.0394    0.0000 N   0  0  0  0  0  0  0  0  0  0  0  0
    8.4583   -2.6128    0.0000 C   0  0  0  0  0  0  0  0  0  0  0  0
    9.4620   -1.4981    0.0000 C   0  0  0  0  0  0  0  0  0  0  0  0
    8.9985   -0.0715    0.0000 C   0  0  0  0  0  0  0  0  0  0  0  0
    8.5350    1.3551    0.0000 C   0  0  0  0  0  0  0  0  0  0  0  0
    6.9911   -2.3009    0.0000 C   0  0  0  0  0  0  0  0  0  0  0  0
    5.9874   -3.4157    0.0000 O   0  0  0  0  0  0  0  0  0  0  0  0
    6.5276   -0.8744    0.0000 O   0  0  0  0  0  0  0  0  0  0  0  0
  1  2  1  0
  1  3  1  0
  3  4  1  1
  4  5  1  0
  5  6  2  0
  6  7  1  0
  7  8  2  0
  8  9  1  0
  9 10  2  0
  3 11  1  0
 11 12  2  0
 11 13  1  0
 13 14  1  0
 14 15  1  1
 15 16  1  0
 16 17  1  0
 16 18  1  0
 14 19  1  0
 19 20  2  0
 19 21  1  0
 21 22  1  0
 22 23  1  6
 23 24  1  0
 24 25  1  0
 24 26  1  0
 22 27  1  0
 27 28  2  0
 27 29  1  0
 29 30  1  0
 30 31  1  0
 31 32  1  0
 32 33  1  0
 33 34  1  6
 34 35  2  0
 34 36  1  0
 36 37  1  0
 37 38  1  6
 38 39  1  0
 39 40  3  0
 37 41  1  0
 41 42  2  0
 41 43  1  0
 10  5  1  0
 33 29  1  0
M  END
$$$$

     RDKit          2D

 43 44  0  0  0  0  0  0  0  0999 V2000
   -0.7500   -3.8971    0.0000 N   0  0  0  0  0  0  0  0  0  0  0  0
   -1.5000   -5.1962    0.0000 C   0  0  0  0  0  0  0  0  0  0  0  0
    0.7500   -3.8971    0.0000 C   0  0  0  0  0  0  0  0  0  0  0  0
    1.5000   -2.5981    0.0000 C   0  0  0  0  0  0  0  0  0  0  0  0
    0.7500   -1.2990    0.0000 C   0  0  0  0  0  0  0  0  0  0  0  0
    1.5000    0.0000    0.0000 C   0  0  0  0  0  0  0  0  0  0  0  0
    0.7500    1.2990    0.0000 C   0  0  0  0  0  0  0  0  0  0  0  0
   -0.7500    1.2990    0.0000 C   0  0  0  0  0  0  0  0  0  0  0  0
   -1.5000    0.0000    0.0000 C   0  0  0  0  0  0  0  0  0  0  0  0
   -0.7500   -1.2990    0.0000 C   0  0  0  0  0  0  0  0  0  0  0  0
    1.5000   -5.1962    0.0000 C   0  0  0  0  0  0  0  0  0  0  0  0
    3.0000   -5.1962    0.0000 O   0  0  0  0  0  0  0  0  0  0  0  0
    0.7500   -6.4952    0.0000 N   0  0  0  0  0  0  0  0  0  0  0  0
    1.5000   -7.7942    0.0000 C   0  0  0  0  0  0  0  0  0  0  0  0
    0.7500   -9.0933    0.0000 C   0  0  0  0  0  0  0  0  0  0  0  0
    1.5000  -10.3923    0.0000 C   0  0  0  0  0  0  0  0  0  0  0  0
    0.7500  -11.6913    0.0000 C   0  0  0  0  0  0  0  0  0  0  0  0
    3.0000  -10.3923    0.0000 C   0  0  0  0  0  0  0  0  0  0  0  0
    3.0000   -7.7942    0.0000 C   0  0  0  0  0  0  0  0  0  0  0  0
    3.7500   -6.4952    0.0000 O   0  0  0  0  0  0  0  0  0  0  0  0
    3.7500   -9.0933    0.0000 N   0  0  0  0  0  0  0  0  0  0  0  0
    5.2500   -9.0933    0.0000 C   0  0  0  0  0  0  0  0  0  0  0  0
    6.0000  -10.3923    0.0000 C   0  0  0  0  0  0  0  0  0  0  0  0
    5.2500  -11.6913    0.0000 C   0  0  0  0  0  0  0  0  0  0  0  0
    6.0000  -12.9904    0.0000 C   0  0  0  0  0  0  0  0  0  0  0  0
    3.7500  -11.6913    0.0000 C   0  0  0  0  0  0  0  0  0  0  0  0
    6.0000   -7.7942    0.0000 C   0  0  0  0  0  0  0  0  0  0  0  0
    5.2500   -6.4952    0.0000 O   0  0  0  0  0  0  0  0  0  0  0  0
    7.5000   -7.7942    0.0000 N   0  0  0  0  0  0  0  0  0  0  0  0
    8.3817   -9.0078    0.0000 C   0  0  0  0  0  0  0  0  0  0  0  0
    9.8083   -8.5442    0.0000 C   0  0  0  0  0  0  0  0  0  0  0  0
    9.8083   -7.0442    0.0000 C   0  0  0  0  0  0  0  0  0  0  0  0
    8.3817   -6.5807    0.0000 C   0  0  0  0  0  0  0  0  0  0  0  0
    7.9182   -5.1541    0.0000 C   0  0  0  0  0  0  0  0  0  0  0  0
    6.4509   -4.8423    0.0000 O   0  0  0  0  0  0  0  0  0  0  0  0
    8.9218   -4.0394    0.0000 N   0  0  0  0  0  0  0  0  0  0  0  0
    8.4583   -2.6128    0.0000 C   0  0  0  0  0  0  0  0  0  0  0  0
    9.4620   -1.4981    0.0000 C   0  0  0  0  0  0  0  0  0  0  0  0
    8.9985   -0.0715    0.0000 C   0  0  0  0  0  0  0  0  0  0  0  0
    8.5350    1.3551    0.0000 C   0  0  0  0  0  0  0  0  0  0  0  0
    6.9911   -2.3009    0.0000 C   0  0  0  0  0  0  0  0  0  0  0  0
    5.9874   -3.4157    0.0000 O   0  0  0  0  0  0  0  0  0  0  0  0
    6.5276   -0.8744    0.0000 O   0  0  0  0  0  0  0  0  0  0  0  0
  1  2  1  0
  1  3  1  0
  3  4  1  6
  4  5  1  0
  5  6  2  0
  6  7  1  0
  7  8  2  0
  8  9  1  0
  9 10  2  0
  3 11  1  0
 11 12  2  0
 11 13  1  0
 13 14  1  0
 14 15  1  1
 15 16  1  0
 16 17  1  0
 16 18  1  0
 14 19  1  0
 19 20  2  0
 19 21  1  0
 21 22  1  0
 22 23  1  6
 23 24  1  0
 24 25  1  0
 24 26  1  0
 22 27  1  0
 27 28  2  0
 27 29  1  0
 29 30  1  0
 30 31  1  0
 31 32  1  0
 32 33  1  0
 33 34  1  6
 34 35  2  0
 34 36  1  0
 36 37  1  0
 37 38  1  6
 38 39  1  0
 39 40  3  0
 37 41  1  0
 41 42  2  0
 41 43  1  0
 10  5  1  0
 33 29  1  0
M  END
$$$$

     RDKit          2D

 38 38  0  0  0  0  0  0  0  0999 V2000
   -1.7240    5.1962    0.0000 N   0  0  0  0  0  0  0  0  0  0  0  0
   -0.9740    6.4952    0.0000 C   0  0  0  0  0  0  0  0  0  0  0  0
   -1.7240    7.7942    0.0000 C   0  0  0  0  0  0  0  0  0  0  0  0
   -0.9740    9.0933    0.0000 O   0  0  0  0  0  0  0  0  0  0  0  0
   -3.2240    7.7942    0.0000 C   0  0  0  0  0  0  0  0  0  0  0  0
    0.5260    6.4952    0.0000 C   0  0  0  0  0  0  0  0  0  0  0  0
    1.2760    7.7942    0.0000 O   0  0  0  0  0  0  0  0  0  0  0  0
    1.2760    5.1962    0.0000 N   0  0  0  0  0  0  0  0  0  0  0  0
    2.7760    5.1962    0.0000 C   0  0  0  0  0  0  0  0  0  0  0  0
    3.5260    6.4952    0.0000 C   0  0  0  0  0  0  0  0  0  0  0  0
    5.0260    6.4952    0.0000 C   0  0  0  0  0  0  0  0  0  0  0  0
    5.7760    7.7942    0.0000 C   0  0  0  0  0  0  0  0  0  0  0  0
    5.7760    5.1962    0.0000 C   0  0  0  0  0  0  0  0  0  0  0  0
    3.5260    3.8971    0.0000 C   0  0  0  0  0  0  0  0  0  0  0  0
    5.0260    3.8971    0.0000 O   0  0  0  0  0  0  0  0  0  0  0  0
    2.7760    2.5981    0.0000 N   0  0  0  0  0  0  0  0  0  0  0  0
    3.5260    1.2990    0.0000 C   0  0  0  0  0  0  0  0  0  0  0  0
    5.0260    1.2990    0.0000 C   0  0  0  0  0  0  0  0  0  0  0  0
    5.7760    0.0000    0.0000 C   0  0  0  0  0  0  0  0  0  0  0  0
    7.2760    0.0000    0.0000 C   0  0  0  0  0  0  0  0  0  0  0  0
    5.0260   -1.2990    0.0000 C   0  0  0  0  0  0  0  0  0  0  0  0
    2.7760    0.0000    0.0000 C   0  0  0  0  0  0  0  0  0  0  0  0
    3.5260   -1.2990    0.0000 O   0  0  0  0  0  0  0  0  0  0  0  0
    1.2760    0.0000    0.0000 N   0  0  0  0  0  0  0  0  0  0  0  0
    0.3943    1.2135    0.0000 C   0  0  0  0  0  0  0  0  0  0  0  0
   -1.0323    0.7500    0.0000 C   0  0  0  0  0  0  0  0  0  0  0  0
   -1.0323   -0.7500    0.0000 C   0  0  0  0  0  0  0  0  0  0  0  0
    0.3943   -1.2135    0.0000 C   0  0  0  0  0  0  0  0  0  0  0  0
    0.8578   -2.6401    0.0000 C   0  0  0  0  0  0  0  0  0  0  0  0
    2.3250   -2.9520    0.0000 O   0  0  0  0  0  0  0  0  0  0  0  0
   -0.1459   -3.7548    0.0000 N   0  0  0  0  0  0  0  0  0  0  0  0
    0.3177   -5.1814    0.0000 C   0  0  0  0  0  0  0  0  0  0  0  0
   -0.6860   -6.2961    0.0000 C   0  0  0  0  0  0  0  0  0  0  0  0
   -0.2225   -7.7227    0.0000 C   0  0  0  0  0  0  0  0  0  0  0  0
    0.2410   -9.1493    0.0000 C   0  0  0  0  0  0  0  0  0  0  0  0
    1.7849   -5.4933    0.0000 C   0  0  0  0  0  0  0  0  0  0  0  0
    2.7886   -4.3786    0.0000 O   0  0  0  0  0  0  0  0  0  0  0  0
    2.2484   -6.9199    0.0000 O   0  0  0  0  0  0  0  0  0  0  0  0
  2  1  1  1
  2  3  1  0
  3  4  1  0
  3  5  1  1
  2  6  1  0
  6  7  2  0
  6  8  1  0
  8  9  1  0
  9 10  1  6
 10 11  1  0
 11 12  1  0
 11 13  1  0
  9 14  1  0
 14 15  2  0
 14 16  1  0
 16 17  1  0
 17 18  1  1
 18 19  1  0
 19 20  1  0
 19 21  1  0
 17 22  1  0
 22 23  2  0
 22 24  1  0
 24 25  1  0
 25 26  1  0
 26 27  1  0
 27 28  1  0
 28 29  1  6
 29 30  2  0
 29 31  1  0
 31 32  1  0
 32 33  1  6
 33 34  1  0
 34 35  3  0
 32 36  1  0
 36 37  2  0
 36 38  1  0
 28 24  1  0
M  END
$$$$

     RDKit          2D

 38 38  0  0  0  0  0  0  0  0999 V2000
   -1.7240    5.1962    0.0000 N   0  0  0  0  0  0  0  0  0  0  0  0
   -0.9740    6.4952    0.0000 C   0  0  0  0  0  0  0  0  0  0  0  0
   -1.7240    7.7942    0.0000 C   0  0  0  0  0  0  0  0  0  0  0  0
   -0.9740    9.0933    0.0000 O   0  0  0  0  0  0  0  0  0  0  0  0
   -3.2240    7.7942    0.0000 C   0  0  0  0  0  0  0  0  0  0  0  0
    0.5260    6.4952    0.0000 C   0  0  0  0  0  0  0  0  0  0  0  0
    1.2760    7.7942    0.0000 O   0  0  0  0  0  0  0  0  0  0  0  0
    1.2760    5.1962    0.0000 N   0  0  0  0  0  0  0  0  0  0  0  0
    2.7760    5.1962    0.0000 C   0  0  0  0  0  0  0  0  0  0  0  0
    3.5260    6.4952    0.0000 C   0  0  0  0  0  0  0  0  0  0  0  0
    5.0260    6.4952    0.0000 C   0  0  0  0  0  0  0  0  0  0  0  0
    5.7760    7.7942    0.0000 C   0  0  0  0  0  0  0  0  0  0  0  0
    5.7760    5.1962    0.0000 C   0  0  0  0  0  0  0  0  0  0  0  0
    3.5260    3.8971    0.0000 C   0  0  0  0  0  0  0  0  0  0  0  0
    5.0260    3.8971    0.0000 O   0  0  0  0  0  0  0  0  0  0  0  0
    2.7760    2.5981    0.0000 N   0  0  0  0  0  0  0  0  0  0  0  0
    3.5260    1.2990    0.0000 C   0  0  0  0  0  0  0  0  0  0  0  0
    5.0260    1.2990    0.0000 C   0  0  0  0  0  0  0  0  0  0  0  0
    5.7760    0.0000    0.0000 C   0  0  0  0  0  0  0  0  0  0  0  0
    7.2760    0.0000    0.0000 C   0  0  0  0  0  0  0  0  0  0  0  0
    5.0260   -1.2990    0.0000 C   0  0  0  0  0  0  0  0  0  0  0  0
    2.7760    0.0000    0.0000 C   0  0  0  0  0  0  0  0  0  0  0  0
    3.5260   -1.2990    0.0000 O   0  0  0  0  0  0  0  0  0  0  0  0
    1.2760    0.0000    0.0000 N   0  0  0  0  0  0  0  0  0  0  0  0
    0.3943    1.2135    0.0000 C   0  0  0  0  0  0  0  0  0  0  0  0
   -1.0323    0.7500    0.0000 C   0  0  0  0  0  0  0  0  0  0  0  0
   -1.0323   -0.7500    0.0000 C   0  0  0  0  0  0  0  0  0  0  0  0
    0.3943   -1.2135    0.0000 C   0  0  0  0  0  0  0  0  0  0  0  0
    0.8578   -2.6401    0.0000 C   0  0  0  0  0  0  0  0  0  0  0  0
    2.3250   -2.9520    0.0000 O   0  0  0  0  0  0  0  0  0  0  0  0
   -0.1459   -3.7548    0.0000 N   0  0  0  0  0  0  0  0  0  0  0  0
    0.3177   -5.1814    0.0000 C   0  0  0  0  0  0  0  0  0  0  0  0
   -0.6860   -6.2961    0.0000 C   0  0  0  0  0  0  0  0  0  0  0  0
   -0.2225   -7.7227    0.0000 C   0  0  0  0  0  0  0  0  0  0  0  0
    0.2410   -9.1493    0.0000 C   0  0  0  0  0  0  0  0  0  0  0  0
    1.7849   -5.4933    0.0000 C   0  0  0  0  0  0  0  0  0  0  0  0
    2.7886   -4.3786    0.0000 O   0  0  0  0  0  0  0  0  0  0  0  0
    2.2484   -6.9199    0.0000 O   0  0  0  0  0  0  0  0  0  0  0  0
  2  1  1  6
  2  3  1  0
  3  4  1  0
  3  5  1  1
  2  6  1  0
  6  7  2  0
  6  8  1  0
  8  9  1  0
  9 10  1  6
 10 11  1  0
 11 12  1  0
 11 13  1  0
  9 14  1  0
 14 15  2  0
 14 16  1  0
 16 17  1  0
 17 18  1  1
 18 19  1  0
 19 20  1  0
 19 21  1  0
 17 22  1  0
 22 23  2  0
 22 24  1  0
 24 25  1  0
 25 26  1  0
 26 27  1  0
 27 28  1  0
 28 29  1  6
 29 30  2  0
 29 31  1  0
 31 32  1  0
 32 33  1  6
 33 34  1  0
 34 35  3  0
 32 36  1  0
 36 37  2  0
 36 38  1  0
 28 24  1  0
M  END
$$$$

     RDKit          2D

 39 39  0  0  0  0  0  0  0  0999 V2000
   -1.7240    5.1962    0.0000 N   0  0  0  0  0  0  0  0  0  0  0  0
   -3.2240    5.1962    0.0000 C   0  0  0  0  0  0  0  0  0  0  0  0
   -0.9740    6.4952    0.0000 C   0  0  0  0  0  0  0  0  0  0  0  0
   -1.7240    7.7942    0.0000 C   0  0  0  0  0  0  0  0  0  0  0  0
   -0.9740    9.0933    0.0000 O   0  0  0  0  0  0  0  0  0  0  0  0
   -3.2240    7.7942    0.0000 C   0  0  0  0  0  0  0  0  0  0  0  0
    0.5260    6.4952    0.0000 C   0  0  0  0  0  0  0  0  0  0  0  0
    1.2760    7.7942    0.0000 O   0  0  0  0  0  0  0  0  0  0  0  0
    1.2760    5.1962    0.0000 N   0  0  0  0  0  0  0  0  0  0  0  0
    2.7760    5.1962    0.0000 C   0  0  0  0  0  0  0  0  0  0  0  0
    3.5260    6.4952    0.0000 C   0  0  0  0  0  0  0  0  0  0  0  0
    5.0260    6.4952    0.0000 C   0  0  0  0  0  0  0  0  0  0  0  0
    5.7760    7.7942    0.0000 C   0  0  0  0  0  0  0  0  0  0  0  0
    5.7760    5.1962    0.0000 C   0  0  0  0  0  0  0  0  0  0  0  0
    3.5260    3.8971    0.0000 C   0  0  0  0  0  0  0  0  0  0  0  0
    5.0260    3.8971    0.0000 O   0  0  0  0  0  0  0  0  0  0  0  0
    2.7760    2.5981    0.0000 N   0  0  0  0  0  0  0  0  0  0  0  0
    3.5260    1.2990    0.0000 C   0  0  0  0  0  0  0  0  0  0  0  0
    5.0260    1.2990    0.0000 C   0  0  0  0  0  0  0  0  0  0  0  0
    5.7760    0.0000    0.0000 C   0  0  0  0  0  0  0  0  0  0  0  0
    5.0260   -1.2990    0.0000 C   0  0  0  0  0  0  0  0  0  0  0  0
    7.2760    0.0000    0.0000 C   0  0  0  0  0  0  0  0  0  0  0  0
    2.7760    0.0000    0.0000 C   0  0  0  0  0  0  0  0  0  0  0  0
    3.5260   -1.2990    0.0000 O   0  0  0  0  0  0  0  0  0  0  0  0
    1.2760    0.0000    0.0000 N   0  0  0  0  0  0  0  0  0  0  0  0
    0.3943    1.2135    0.0000 C   0  0  0  0  0  0  0  0  0  0  0  0
   -1.0323    0.7500    0.0000 C   0  0  0  0  0  0  0  0  0  0  0  0
   -1.0323   -0.7500    0.0000 C   0  0  0  0  0  0  0  0  0  0  0  0
    0.3943   -1.2135    0.0000 C   0  0  0  0  0  0  0  0  0  0  0  0
    0.8578   -2.6401    0.0000 C   0  0  0  0  0  0  0  0  0  0  0  0
    2.3250   -2.9520    0.0000 O   0  0  0  0  0  0  0  0  0  0  0  0
   -0.1459   -3.7548    0.0000 N   0  0  0  0  0  0  0  0  0  0  0  0
    0.3177   -5.1814    0.0000 C   0  0  0  0  0  0  0  0  0  0  0  0
   -0.6860   -6.2961    0.0000 C   0  0  0  0  0  0  0  0  0  0  0  0
   -0.2225   -7.7227    0.0000 C   0  0  0  0  0  0  0  0  0  0  0  0
    0.2410   -9.1493    0.0000 C   0  0  0  0  0  0  0  0  0  0  0  0
    1.7849   -5.4933    0.0000 C   0  0  0  0  0  0  0  0  0  0  0  0
    2.7886   -4.3786    0.0000 O   0  0  0  0  0  0  0  0  0  0  0  0
    2.2484   -6.9199    0.0000 O   0  0  0  0  0  0  0  0  0  0  0  0
  1  2  1  0
  3  1  1  1
  3  4  1  0
  4  5  1  0
  4  6  1  1
  3  7  1  0
  7  8  2  0
  7  9  1  0
  9 10  1  0
 10 11  1  6
 11 12  1  0
 12 13  1  0
 12 14  1  0
 10 15  1  0
 15 16  2  0
 15 17  1  0
 17 18  1  0
 18 19  1  1
 19 20  1  0
 20 21  1  0
 20 22  1  0
 18 23  1  0
 23 24  2  0
 23 25  1  0
 25 26  1  0
 26 27  1  0
 27 28  1  0
 28 29  1  0
 29 30  1  6
 30 31  2  0
 30 32  1  0
 32 33  1  0
 33 34  1  6
 34 35  1  0
 35 36  3  0
 33 37  1  0
 37 38  2  0
 37 39  1  0
 29 25  1  0
M  END
$$$$

     RDKit          2D

 39 39  0  0  0  0  0  0  0  0999 V2000
   -1.7240    5.1962    0.0000 N   0  0  0  0  0  0  0  0  0  0  0  0
   -3.2240    5.1962    0.0000 C   0  0  0  0  0  0  0  0  0  0  0  0
   -0.9740    6.4952    0.0000 C   0  0  0  0  0  0  0  0  0  0  0  0
   -1.7240    7.7942    0.0000 C   0  0  0  0  0  0  0  0  0  0  0  0
   -0.9740    9.0933    0.0000 O   0  0  0  0  0  0  0  0  0  0  0  0
   -3.2240    7.7942    0.0000 C   0  0  0  0  0  0  0  0  0  0  0  0
    0.5260    6.4952    0.0000 C   0  0  0  0  0  0  0  0  0  0  0  0
    1.2760    7.7942    0.0000 O   0  0  0  0  0  0  0  0  0  0  0  0
    1.2760    5.1962    0.0000 N   0  0  0  0  0  0  0  0  0  0  0  0
    2.7760    5.1962    0.0000 C   0  0  0  0  0  0  0  0  0  0  0  0
    3.5260    6.4952    0.0000 C   0  0  0  0  0  0  0  0  0  0  0  0
    5.0260    6.4952    0.0000 C   0  0  0  0  0  0  0  0  0  0  0  0
    5.7760    7.7942    0.0000 C   0  0  0  0  0  0  0  0  0  0  0  0
    5.7760    5.1962    0.0000 C   0  0  0  0  0  0  0  0  0  0  0  0
    3.5260    3.8971    0.0000 C   0  0  0  0  0  0  0  0  0  0  0  0
    5.0260    3.8971    0.0000 O   0  0  0  0  0  0  0  0  0  0  0  0
    2.7760    2.5981    0.0000 N   0  0  0  0  0  0  0  0  0  0  0  0
    3.5260    1.2990    0.0000 C   0  0  0  0  0  0  0  0  0  0  0  0
    5.0260    1.2990    0.0000 C   0  0  0  0  0  0  0  0  0  0  0  0
    5.7760    0.0000    0.0000 C   0  0  0  0  0  0  0  0  0  0  0  0
    5.0260   -1.2990    0.0000 C   0  0  0  0  0  0  0  0  0  0  0  0
    7.2760    0.0000    0.0000 C   0  0  0  0  0  0  0  0  0  0  0  0
    2.7760    0.0000    0.0000 C   0  0  0  0  0  0  0  0  0  0  0  0
    3.5260   -1.2990    0.0000 O   0  0  0  0  0  0  0  0  0  0  0  0
    1.2760    0.0000    0.0000 N   0  0  0  0  0  0  0  0  0  0  0  0
    0.3943    1.2135    0.0000 C   0  0  0  0  0  0  0  0  0  0  0  0
   -1.0323    0.7500    0.0000 C   0  0  0  0  0  0  0  0  0  0  0  0
   -1.0323   -0.7500    0.0000 C   0  0  0  0  0  0  0  0  0  0  0  0
    0.3943   -1.2135    0.0000 C   0  0  0  0  0  0  0  0  0  0  0  0
    0.8578   -2.6401    0.0000 C   0  0  0  0  0  0  0  0  0  0  0  0
    2.3250   -2.9520    0.0000 O   0  0  0  0  0  0  0  0  0  0  0  0
   -0.1459   -3.7548    0.0000 N   0  0  0  0  0  0  0  0  0  0  0  0
    0.3177   -5.1814    0.0000 C   0  0  0  0  0  0  0  0  0  0  0  0
   -0.6860   -6.2961    0.0000 C   0  0  0  0  0  0  0  0  0  0  0  0
   -0.2225   -7.7227    0.0000 C   0  0  0  0  0  0  0  0  0  0  0  0
    0.2410   -9.1493    0.0000 C   0  0  0  0  0  0  0  0  0  0  0  0
    1.7849   -5.4933    0.0000 C   0  0  0  0  0  0  0  0  0  0  0  0
    2.7886   -4.3786    0.0000 O   0  0  0  0  0  0  0  0  0  0  0  0
    2.2484   -6.9199    0.0000 O   0  0  0  0  0  0  0  0  0  0  0  0
  1  2  1  0
  3  1  1  6
  3  4  1  0
  4  5  1  0
  4  6  1  1
  3  7  1  0
  7  8  2  0
  7  9  1  0
  9 10  1  0
 10 11  1  6
 11 12  1  0
 12 13  1  0
 12 14  1  0
 10 15  1  0
 15 16  2  0
 15 17  1  0
 17 18  1  0
 18 19  1  1
 19 20  1  0
 20 21  1  0
 20 22  1  0
 18 23  1  0
 23 24  2  0
 23 25  1  0
 25 26  1  0
 26 27  1  0
 27 28  1  0
 28 29  1  0
 29 30  1  6
 30 31  2  0
 30 32  1  0
 32 33  1  0
 33 34  1  6
 34 35  1  0
 35 36  3  0
 33 37  1  0
 37 38  2  0
 37 39  1  0
 29 25  1  0
M  END
$$$$

     RDKit          2D

 39 39  0  0  0  0  0  0  0  0999 V2000
   -1.7240    7.7942    0.0000 N   0  0  0  0  0  0  0  0  0  0  0  0
   -3.2240    7.7942    0.0000 C   0  0  0  0  0  0  0  0  0  0  0  0
   -3.9740    9.0933    0.0000 C   0  0  0  0  0  0  0  0  0  0  0  0
   -5.4740    9.0933    0.0000 C   0  0  0  0  0  0  0  0  0  0  0  0
   -3.2240   10.3923    0.0000 C   0  0  0  0  0  0  0  0  0  0  0  0
   -0.9740    6.4952    0.0000 C   0  0  0  0  0  0  0  0  0  0  0  0
    0.5260    6.4952    0.0000 C   0  0  0  0  0  0  0  0  0  0  0  0
    1.2760    7.7942    0.0000 O   0  0  0  0  0  0  0  0  0  0  0  0
    1.2760    5.1962    0.0000 N   0  0  0  0  0  0  0  0  0  0  0  0
    2.7760    5.1962    0.0000 C   0  0  0  0  0  0  0  0  0  0  0  0
    3.5260    6.4952    0.0000 C   0  0  0  0  0  0  0  0  0  0  0  0
    5.0260    6.4952    0.0000 C   0  0  0  0  0  0  0  0  0  0  0  0
    5.7760    7.7942    0.0000 C   0  0  0  0  0  0  0  0  0  0  0  0
    5.7760    5.1962    0.0000 C   0  0  0  0  0  0  0  0  0  0  0  0
    3.5260    3.8971    0.0000 C   0  0  0  0  0  0  0  0  0  0  0  0
    5.0260    3.8971    0.0000 O   0  0  0  0  0  0  0  0  0  0  0  0
    2.7760    2.5981    0.0000 N   0  0  0  0  0  0  0  0  0  0  0  0
    3.5260    1.2990    0.0000 C   0  0  0  0  0  0  0  0  0  0  0  0
    5.0260    1.2990    0.0000 C   0  0  0  0  0  0  0  0  0  0  0  0
    5.7760    0.0000    0.0000 C   0  0  0  0  0  0  0  0  0  0  0  0
    7.2760    0.0000    0.0000 C   0  0  0  0  0  0  0  0  0  0  0  0
    5.0260   -1.2990    0.0000 C   0  0  0  0  0  0  0  0  0  0  0  0
    2.7760    0.0000    0.0000 C   0  0  0  0  0  0  0  0  0  0  0  0
    3.5260   -1.2990    0.0000 O   0  0  0  0  0  0  0  0  0  0  0  0
    1.2760    0.0000    0.0000 N   0  0  0  0  0  0  0  0  0  0  0  0
    0.3943    1.2135    0.0000 C   0  0  0  0  0  0  0  0  0  0  0  0
   -1.0323    0.7500    0.0000 C   0  0  0  0  0  0  0  0  0  0  0  0
   -1.0323   -0.7500    0.0000 C   0  0  0  0  0  0  0  0  0  0  0  0
    0.3943   -1.2135    0.0000 C   0  0  0  0  0  0  0  0  0  0  0  0
    0.8578   -2.6401    0.0000 C   0  0  0  0  0  0  0  0  0  0  0  0
    2.3250   -2.9520    0.0000 O   0  0  0  0  0  0  0  0  0  0  0  0
   -0.1459   -3.7548    0.0000 N   0  0  0  0  0  0  0  0  0  0  0  0
    0.3177   -5.1814    0.0000 C   0  0  0  0  0  0  0  0  0  0  0  0
   -0.6860   -6.2961    0.0000 C   0  0  0  0  0  0  0  0  0  0  0  0
   -0.2225   -7.7227    0.0000 C   0  0  0  0  0  0  0  0  0  0  0  0
    0.2410   -9.1493    0.0000 C   0  0  0  0  0  0  0  0  0  0  0  0
    1.7849   -5.4933    0.0000 C   0  0  0  0  0  0  0  0  0  0  0  0
    2.7886   -4.3786    0.0000 O   0  0  0  0  0  0  0  0  0  0  0  0
    2.2484   -6.9199    0.0000 O   0  0  0  0  0  0  0  0  0  0  0  0
  1  2  1  0
  2  3  1  0
  3  4  1  0
  3  5  1  0
  1  6  1  0
  6  7  1  0
  7  8  2  0
  7  9  1  0
  9 10  1  0
 10 11  1  6
 11 12  1  0
 12 13  1  0
 12 14  1  0
 10 15  1  0
 15 16  2  0
 15 17  1  0
 17 18  1  0
 18 19  1  1
 19 20  1  0
 20 21  1  0
 20 22  1  0
 18 23  1  0
 23 24  2  0
 23 25  1  0
 25 26  1  0
 26 27  1  0
 27 28  1  0
 28 29  1  0
 29 30  1  6
 30 31  2  0
 30 32  1  0
 32 33  1  0
 33 34  1  6
 34 35  1  0
 35 36  3  0
 33 37  1  0
 37 38  2  0
 37 39  1  0
 29 25  1  0
M  END
$$$$

     RDKit          2D

 42 42  0  0  0  0  0  0  0  0999 V2000
   -1.7240    7.7942    0.0000 N   0  0  0  0  0  0  0  0  0  0  0  0
   -3.2240    7.7942    0.0000 C   0  0  0  0  0  0  0  0  0  0  0  0
   -3.9740    9.0933    0.0000 C   0  0  0  0  0  0  0  0  0  0  0  0
   -5.4740    9.0933    0.0000 C   0  0  0  0  0  0  0  0  0  0  0  0
   -6.2240   10.3923    0.0000 O   0  0  0  0  0  0  0  0  0  0  0  0
   -7.7240   10.3923    0.0000 C   0  0  0  0  0  0  0  0  0  0  0  0
   -8.4740   11.6913    0.0000 C   0  0  0  0  0  0  0  0  0  0  0  0
   -8.4740    9.0933    0.0000 C   0  0  0  0  0  0  0  0  0  0  0  0
   -0.9740    6.4952    0.0000 C   0  0  0  0  0  0  0  0  0  0  0  0
    0.5260    6.4952    0.0000 C   0  0  0  0  0  0  0  0  0  0  0  0
    1.2760    7.7942    0.0000 O   0  0  0  0  0  0  0  0  0  0  0  0
    1.2760    5.1962    0.0000 N   0  0  0  0  0  0  0  0  0  0  0  0
    2.7760    5.1962    0.0000 C   0  0  0  0  0  0  0  0  0  0  0  0
    3.5260    6.4952    0.0000 C   0  0  0  0  0  0  0  0  0  0  0  0
    5.0260    6.4952    0.0000 C   0  0  0  0  0  0  0  0  0  0  0  0
    5.7760    7.7942    0.0000 C   0  0  0  0  0  0  0  0  0  0  0  0
    5.7760    5.1962    0.0000 C   0  0  0  0  0  0  0  0  0  0  0  0
    3.5260    3.8971    0.0000 C   0  0  0  0  0  0  0  0  0  0  0  0
    5.0260    3.8971    0.0000 O   0  0  0  0  0  0  0  0  0  0  0  0
    2.7760    2.5981    0.0000 N   0  0  0  0  0  0  0  0  0  0  0  0
    3.5260    1.2990    0.0000 C   0  0  0  0  0  0  0  0  0  0  0  0
    5.0260    1.2990    0.0000 C   0  0  0  0  0  0  0  0  0  0  0  0
    5.7760    0.0000    0.0000 C   0  0  0  0  0  0  0  0  0  0  0  0
    7.2760    0.0000    0.0000 C   0  0  0  0  0  0  0  0  0  0  0  0
    5.0260   -1.2990    0.0000 C   0  0  0  0  0  0  0  0  0  0  0  0
    2.7760    0.0000    0.0000 C   0  0  0  0  0  0  0  0  0  0  0  0
    3.5260   -1.2990    0.0000 O   0  0  0  0  0  0  0  0  0  0  0  0
    1.2760    0.0000    0.0000 N   0  0  0  0  0  0  0  0  0  0  0  0
    0.3943    1.2135    0.0000 C   0  0  0  0  0  0  0  0  0  0  0  0
   -1.0323    0.7500    0.0000 C   0  0  0  0  0  0  0  0  0  0  0  0
   -1.0323   -0.7500    0.0000 C   0  0  0  0  0  0  0  0  0  0  0  0
    0.3943   -1.2135    0.0000 C   0  0  0  0  0  0  0  0  0  0  0  0
    0.8578   -2.6401    0.0000 C   0  0  0  0  0  0  0  0  0  0  0  0
    2.3250   -2.9520    0.0000 O   0  0  0  0  0  0  0  0  0  0  0  0
   -0.1459   -3.7548    0.0000 N   0  0  0  0  0  0  0  0  0  0  0  0
    0.3177   -5.1814    0.0000 C   0  0  0  0  0  0  0  0  0  0  0  0
   -0.6860   -6.2961    0.0000 C   0  0  0  0  0  0  0  0  0  0  0  0
   -0.2225   -7.7227    0.0000 C   0  0  0  0  0  0  0  0  0  0  0  0
    0.2410   -9.1493    0.0000 C   0  0  0  0  0  0  0  0  0  0  0  0
    1.7849   -5.4933    0.0000 C   0  0  0  0  0  0  0  0  0  0  0  0
    2.7886   -4.3786    0.0000 O   0  0  0  0  0  0  0  0  0  0  0  0
    2.2484   -6.9199    0.0000 O   0  0  0  0  0  0  0  0  0  0  0  0
  1  2  1  0
  2  3  1  0
  3  4  1  0
  4  5  1  0
  5  6  1  0
  6  7  1  0
  6  8  1  0
  1  9  1  0
  9 10  1  0
 10 11  2  0
 10 12  1  0
 12 13  1  0
 13 14  1  6
 14 15  1  0
 15 16  1  0
 15 17  1  0
 13 18  1  0
 18 19  2  0
 18 20  1  0
 20 21  1  0
 21 22  1  1
 22 23  1  0
 23 24  1  0
 23 25  1  0
 21 26  1  0
 26 27  2  0
 26 28  1  0
 28 29  1  0
 29 30  1  0
 30 31  1  0
 31 32  1  0
 32 33  1  6
 33 34  2  0
 33 35  1  0
 35 36  1  0
 36 37  1  6
 37 38  1  0
 38 39  3  0
 36 40  1  0
 40 41  2  0
 40 42  1  0
 32 28  1  0
M  END
$$$$

     RDKit          2D

 44 45  0  0  0  0  0  0  0  0999 V2000
    0.7500   -6.4952    0.0000 N   0  0  0  0  0  0  0  0  0  0  0  0
    1.5000   -5.1962    0.0000 C   0  0  0  0  0  0  0  0  0  0  0  0
    0.7500   -3.8971    0.0000 C   0  0  0  0  0  0  0  0  0  0  0  0
    1.5000   -2.5981    0.0000 O   0  0  0  0  0  0  0  0  0  0  0  0
    0.7500   -1.2990    0.0000 C   0  0  0  0  0  0  0  0  0  0  0  0
    1.5000    0.0000    0.0000 C   0  0  0  0  0  0  0  0  0  0  0  0
    0.7500    1.2990    0.0000 C   0  0  0  0  0  0  0  0  0  0  0  0
   -0.7500    1.2990    0.0000 C   0  0  0  0  0  0  0  0  0  0  0  0
   -1.5000    0.0000    0.0000 C   0  0  0  0  0  0  0  0  0  0  0  0
   -0.7500   -1.2990    0.0000 C   0  0  0  0  0  0  0  0  0  0  0  0
    1.5000   -7.7942    0.0000 C   0  0  0  0  0  0  0  0  0  0  0  0
    0.7500   -9.0933    0.0000 C   0  0  0  0  0  0  0  0  0  0  0  0
   -0.7500   -9.0933    0.0000 O   0  0  0  0  0  0  0  0  0  0  0  0
    1.5000  -10.3923    0.0000 N   0  0  0  0  0  0  0  0  0  0  0  0
    0.7500  -11.6913    0.0000 C   0  0  0  0  0  0  0  0  0  0  0  0
    1.5000  -12.9904    0.0000 C   0  0  0  0  0  0  0  0  0  0  0  0
    0.7500  -14.2894    0.0000 C   0  0  0  0  0  0  0  0  0  0  0  0
    1.5000  -15.5885    0.0000 C   0  0  0  0  0  0  0  0  0  0  0  0
   -0.7500  -14.2894    0.0000 C   0  0  0  0  0  0  0  0  0  0  0  0
   -0.7500  -11.6913    0.0000 C   0  0  0  0  0  0  0  0  0  0  0  0
   -1.5000  -10.3923    0.0000 O   0  0  0  0  0  0  0  0  0  0  0  0
   -1.5000  -12.9904    0.0000 N   0  0  0  0  0  0  0  0  0  0  0  0
   -3.0000  -12.9904    0.0000 C   0  0  0  0  0  0  0  0  0  0  0  0
   -3.7500  -14.2894    0.0000 C   0  0  0  0  0  0  0  0  0  0  0  0
   -3.0000  -15.5885    0.0000 C   0  0  0  0  0  0  0  0  0  0  0  0
   -3.7500  -16.8875    0.0000 C   0  0  0  0  0  0  0  0  0  0  0  0
   -1.5000  -15.5885    0.0000 C   0  0  0  0  0  0  0  0  0  0  0  0
   -3.7500  -11.6913    0.0000 C   0  0  0  0  0  0  0  0  0  0  0  0
   -3.0000  -10.3923    0.0000 O   0  0  0  0  0  0  0  0  0  0  0  0
   -5.2500  -11.6913    0.0000 N   0  0  0  0  0  0  0  0  0  0  0  0
   -6.1317  -12.9049    0.0000 C   0  0  0  0  0  0  0  0  0  0  0  0
   -7.5583  -12.4413    0.0000 C   0  0  0  0  0  0  0  0  0  0  0  0
   -7.5583  -10.9413    0.0000 C   0  0  0  0  0  0  0  0  0  0  0  0
   -6.1317  -10.4778    0.0000 C   0  0  0  0  0  0  0  0  0  0  0  0
   -5.6682   -9.0512    0.0000 C   0  0  0  0  0  0  0  0  0  0  0  0
   -4.2009   -8.7394    0.0000 O   0  0  0  0  0  0  0  0  0  0  0  0
   -6.6718   -7.9365    0.0000 N   0  0  0  0  0  0  0  0  0  0  0  0
   -6.2083   -6.5099    0.0000 C   0  0  0  0  0  0  0  0  0  0  0  0
   -7.2120   -5.3952    0.0000 C   0  0  0  0  0  0  0  0  0  0  0  0
   -6.7485   -3.9686    0.0000 C   0  0  0  0  0  0  0  0  0  0  0  0
   -6.2850   -2.5420    0.0000 C   0  0  0  0  0  0  0  0  0  0  0  0
   -4.7411   -6.1981    0.0000 C   0  0  0  0  0  0  0  0  0  0  0  0
   -3.7374   -7.3128    0.0000 O   0  0  0  0  0  0  0  0  0  0  0  0
   -4.2776   -4.7715    0.0000 O   0  0  0  0  0  0  0  0  0  0  0  0
  1  2  1  0
  2  3  1  0
  3  4  1  0
  4  5  1  0
  5  6  2  0
  6  7  1  0
  7  8  2  0
  8  9  1  0
  9 10  2  0
  1 11  1  0
 11 12  1  0
 12 13  2  0
 12 14  1  0
 14 15  1  0
 15 16  1  6
 16 17  1  0
 17 18  1  0
 17 19  1  0
 15 20  1  0
 20 21  2  0
 20 22  1  0
 22 23  1  0
 23 24  1  1
 24 25  1  0
 25 26  1  0
 25 27  1  0
 23 28  1  0
 28 29  2  0
 28 30  1  0
 30 31  1  0
 31 32  1  0
 32 33  1  0
 33 34  1  0
 34 35  1  1
 35 36  2  0
 35 37  1  0
 37 38  1  0
 38 39  1  1
 39 40  1  0
 40 41  3  0
 38 42  1  0
 42 43  2  0
 42 44  1  0
 10  5  1  0
 34 30  1  0
M  END
$$$$

     RDKit          2D

 47 48  0  0  0  0  0  0  0  0999 V2000
    1.5000   -5.1962    0.0000 N   0  0  0  0  0  0  0  0  0  0  0  0
    0.7500   -3.8971    0.0000 C   0  0  0  0  0  0  0  0  0  0  0  0
    1.5000   -2.5981    0.0000 C   0  0  0  0  0  0  0  0  0  0  0  0
    0.7500   -1.2990    0.0000 C   0  0  0  0  0  0  0  0  0  0  0  0
    1.5000    0.0000    0.0000 C   0  0  0  0  0  0  0  0  0  0  0  0
    0.7500    1.2990    0.0000 C   0  0  0  0  0  0  0  0  0  0  0  0
   -0.7500    1.2990    0.0000 C   0  0  0  0  0  0  0  0  0  0  0  0
   -1.5000    0.0000    0.0000 C   0  0  0  0  0  0  0  0  0  0  0  0
   -3.0000    0.0000    0.0000 O   0  0  0  0  0  0  0  0  0  0  0  0
   -3.7500   -1.2990    0.0000 C   0  0  0  0  0  0  0  0  0  0  0  0
   -0.7500   -1.2990    0.0000 C   0  0  0  0  0  0  0  0  0  0  0  0
   -1.5000    2.5981    0.0000 O   0  0  0  0  0  0  0  0  0  0  0  0
   -0.7500    3.8971    0.0000 C   0  0  0  0  0  0  0  0  0  0  0  0
    0.7500   -6.4952    0.0000 C   0  0  0  0  0  0  0  0  0  0  0  0
    1.5000   -7.7942    0.0000 C   0  0  0  0  0  0  0  0  0  0  0  0
    3.0000   -7.7942    0.0000 O   0  0  0  0  0  0  0  0  0  0  0  0
    0.7500   -9.0933    0.0000 N   0  0  0  0  0  0  0  0  0  0  0  0
    1.5000  -10.3923    0.0000 C   0  0  0  0  0  0  0  0  0  0  0  0
    0.7500  -11.6913    0.0000 C   0  0  0  0  0  0  0  0  0  0  0  0
    1.5000  -12.9904    0.0000 C   0  0  0  0  0  0  0  0  0  0  0  0
    0.7500  -14.2894    0.0000 C   0  0  0  0  0  0  0  0  0  0  0  0
    3.0000  -12.9904    0.0000 C   0  0  0  0  0  0  0  0  0  0  0  0
    3.0000  -10.3923    0.0000 C   0  0  0  0  0  0  0  0  0  0  0  0
    3.7500   -9.0933    0.0000 O   0  0  0  0  0  0  0  0  0  0  0  0
    3.7500  -11.6913    0.0000 N   0  0  0  0  0  0  0  0  0  0  0  0
    5.2500  -11.6913    0.0000 C   0  0  0  0  0  0  0  0  0  0  0  0
    6.0000  -12.9904    0.0000 C   0  0  0  0  0  0  0  0  0  0  0  0
    5.2500  -14.2894    0.0000 C   0  0  0  0  0  0  0  0  0  0  0  0
    6.0000  -15.5885    0.0000 C   0  0  0  0  0  0  0  0  0  0  0  0
    3.7500  -14.2894    0.0000 C   0  0  0  0  0  0  0  0  0  0  0  0
    6.0000  -10.3923    0.0000 C   0  0  0  0  0  0  0  0  0  0  0  0
    5.2500   -9.0933    0.0000 O   0  0  0  0  0  0  0  0  0  0  0  0
    7.5000  -10.3923    0.0000 N   0  0  0  0  0  0  0  0  0  0  0  0
    8.3817  -11.6058    0.0000 C   0  0  0  0  0  0  0  0  0  0  0  0
    9.8083  -11.1423    0.0000 C   0  0  0  0  0  0  0  0  0  0  0  0
    9.8083   -9.6423    0.0000 C   0  0  0  0  0  0  0  0  0  0  0  0
    8.3817   -9.1788    0.0000 C   0  0  0  0  0  0  0  0  0  0  0  0
    7.9182   -7.7522    0.0000 C   0  0  0  0  0  0  0  0  0  0  0  0
    6.4509   -7.4403    0.0000 O   0  0  0  0  0  0  0  0  0  0  0  0
    8.9218   -6.6375    0.0000 N   0  0  0  0  0  0  0  0  0  0  0  0
    8.4583   -5.2109    0.0000 C   0  0  0  0  0  0  0  0  0  0  0  0
    9.4620   -4.0962    0.0000 C   0  0  0  0  0  0  0  0  0  0  0  0
    8.9985   -2.6696    0.0000 C   0  0  0  0  0  0  0  0  0  0  0  0
    8.5350   -1.2430    0.0000 C   0  0  0  0  0  0  0  0  0  0  0  0
    6.9911   -4.8990    0.0000 C   0  0  0  0  0  0  0  0  0  0  0  0
    5.9874   -6.0137    0.0000 O   0  0  0  0  0  0  0  0  0  0  0  0
    6.5276   -3.4724    0.0000 O   0  0  0  0  0  0  0  0  0  0  0  0
  1  2  1  0
  2  3  1  0
  3  4  1  0
  4  5  2  0
  5  6  1  0
  6  7  2  0
  7  8  1  0
  8  9  1  0
  9 10  1  0
  8 11  2  0
  7 12  1  0
 12 13  1  0
  1 14  1  0
 14 15  1  0
 15 16  2  0
 15 17  1  0
 17 18  1  0
 18 19  1  1
 19 20  1  0
 20 21  1  0
 20 22  1  0
 18 23  1  0
 23 24  2  0
 23 25  1  0
 25 26  1  0
 26 27  1  6
 27 28  1  0
 28 29  1  0
 28 30  1  0
 26 31  1  0
 31 32  2  0
 31 33  1  0
 33 34  1  0
 34 35  1  0
 35 36  1  0
 36 37  1  0
 37 38  1  6
 38 39  2  0
 38 40  1  0
 40 41  1  0
 41 42  1  6
 42 43  1  0
 43 44  3  0
 41 45  1  0
 45 46  2  0
 45 47  1  0
 11  4  1  0
 37 33  1  0
M  END
$$$$

     RDKit          2D

 54 55  0  0  0  0  0  0  0  0999 V2000
    1.2760    5.1962    0.0000 N   0  0  0  0  0  0  0  0  0  0  0  0
    2.7760    5.1962    0.0000 C   0  0  0  0  0  0  0  0  0  0  0  0
    3.5260    6.4952    0.0000 C   0  0  0  0  0  0  0  0  0  0  0  0
    2.7760    7.7942    0.0000 C   0  0  0  0  0  0  0  0  0  0  0  0
    3.5260    9.0933    0.0000 C   0  0  0  0  0  0  0  0  0  0  0  0
    1.2760    7.7942    0.0000 C   0  0  0  0  0  0  0  0  0  0  0  0
    3.5260    3.8971    0.0000 C   0  0  0  0  0  0  0  0  0  0  0  0
    5.0260    3.8971    0.0000 O   0  0  0  0  0  0  0  0  0  0  0  0
    2.7760    2.5981    0.0000 N   0  0  0  0  0  0  0  0  0  0  0  0
    3.5260    1.2990    0.0000 C   0  0  0  0  0  0  0  0  0  0  0  0
    5.0260    1.2990    0.0000 C   0  0  0  0  0  0  0  0  0  0  0  0
    5.7760    0.0000    0.0000 C   0  0  0  0  0  0  0  0  0  0  0  0
    7.2760    0.0000    0.0000 C   0  0  0  0  0  0  0  0  0  0  0  0
    5.0260   -1.2990    0.0000 C   0  0  0  0  0  0  0  0  0  0  0  0
    2.7760    0.0000    0.0000 C   0  0  0  0  0  0  0  0  0  0  0  0
    3.5260   -1.2990    0.0000 O   0  0  0  0  0  0  0  0  0  0  0  0
    1.2760    0.0000    0.0000 N   0  0  0  0  0  0  0  0  0  0  0  0
    0.3943    1.2135    0.0000 C   0  0  0  0  0  0  0  0  0  0  0  0
   -1.0323    0.7500    0.0000 C   0  0  0  0  0  0  0  0  0  0  0  0
   -1.0323   -0.7500    0.0000 C   0  0  0  0  0  0  0  0  0  0  0  0
    0.3943   -1.2135    0.0000 C   0  0  0  0  0  0  0  0  0  0  0  0
    0.8578   -2.6401    0.0000 C   0  0  0  0  0  0  0  0  0  0  0  0
    2.3250   -2.9520    0.0000 O   0  0  0  0  0  0  0  0  0  0  0  0
   -0.1459   -3.7548    0.0000 N   0  0  0  0  0  0  0  0  0  0  0  0
    0.3177   -5.1814    0.0000 C   0  0  0  0  0  0  0  0  0  0  0  0
   -0.6860   -6.2961    0.0000 C   0  0  0  0  0  0  0  0  0  0  0  0
   -0.2225   -7.7227    0.0000 C   0  0  0  0  0  0  0  0  0  0  0  0
   -1.2262   -8.8374    0.0000 C   0  0  0  0  0  0  0  0  0  0  0  0
    1.2447   -8.0346    0.0000 C   0  0  0  0  0  0  0  0  0  0  0  0
    1.7849   -5.4933    0.0000 C   0  0  0  0  0  0  0  0  0  0  0  0
    2.7886   -4.3786    0.0000 O   0  0  0  0  0  0  0  0  0  0  0  0
    2.2484   -6.9199    0.0000 N   0  0  0  0  0  0  0  0  0  0  0  0
    3.7156   -7.2317    0.0000 C   0  0  0  0  0  0  0  0  0  0  0  0
    4.7193   -6.1170    0.0000 C   0  0  0  0  0  0  0  0  0  0  0  0
    6.1865   -6.4289    0.0000 C   0  0  0  0  0  0  0  0  0  0  0  0
    7.1902   -5.3142    0.0000 C   0  0  0  0  0  0  0  0  0  0  0  0
    6.6501   -7.8555    0.0000 C   0  0  0  0  0  0  0  0  0  0  0  0
    4.1791   -8.6583    0.0000 C   0  0  0  0  0  0  0  0  0  0  0  0
    5.6464   -8.9702    0.0000 O   0  0  0  0  0  0  0  0  0  0  0  0
    3.1755   -9.7730    0.0000 N   0  0  0  0  0  0  0  0  0  0  0  0
    1.6837   -9.6162    0.0000 C   0  0  0  0  0  0  0  0  0  0  0  0
    1.0736  -10.9866    0.0000 C   0  0  0  0  0  0  0  0  0  0  0  0
    2.1883  -11.9903    0.0000 C   0  0  0  0  0  0  0  0  0  0  0  0
    3.4873  -11.2403    0.0000 C   0  0  0  0  0  0  0  0  0  0  0  0
    4.8576  -11.8504    0.0000 C   0  0  0  0  0  0  0  0  0  0  0  0
    6.0712  -10.9687    0.0000 O   0  0  0  0  0  0  0  0  0  0  0  0
    5.0144  -13.3421    0.0000 N   0  0  0  0  0  0  0  0  0  0  0  0
    6.3847  -13.9522    0.0000 C   0  0  0  0  0  0  0  0  0  0  0  0
    6.5415  -15.4440    0.0000 C   0  0  0  0  0  0  0  0  0  0  0  0
    7.9119  -16.0541    0.0000 C   0  0  0  0  0  0  0  0  0  0  0  0
    9.2822  -16.6642    0.0000 C   0  0  0  0  0  0  0  0  0  0  0  0
    7.5983  -13.0706    0.0000 C   0  0  0  0  0  0  0  0  0  0  0  0
    7.4415  -11.5788    0.0000 O   0  0  0  0  0  0  0  0  0  0  0  0
    8.9686  -13.6807    0.0000 O   0  0  0  0  0  0  0  0  0  0  0  0
  2  1  1  1
  2  3  1  0
  3  4  1  0
  4  5  1  0
  4  6  1  0
  2  7  1  0
  7  8  2  0
  7  9  1  0
  9 10  1  0
 10 11  1  1
 11 12  1  0
 12 13  1  0
 12 14  1  0
 10 15  1  0
 15 16  2  0
 15 17  1  0
 17 18  1  0
 18 19  1  0
 19 20  1  0
 20 21  1  0
 21 22  1  6
 22 23  2  0
 22 24  1  0
 24 25  1  0
 25 26  1  1
 26 27  1  0
 27 28  1  0
 27 29  1  0
 25 30  1  0
 30 31  2  0
 30 32  1  0
 32 33  1  0
 33 34  1  1
 34 35  1  0
 35 36  1  0
 35 37  1  0
 33 38  1  0
 38 39  2  0
 38 40  1  0
 40 41  1  0
 41 42  1  0
 42 43  1  0
 43 44  1  0
 44 45  1  6
 45 46  2  0
 45 47  1  0
 47 48  1  0
 48 49  1  6
 49 50  1  0
 50 51  3  0
 48 52  1  0
 52 53  2  0
 52 54  1  0
 44 40  1  0
 21 17  1  0
M  END
$$$$

     RDKit          2D

 54 55  0  0  0  0  0  0  0  0999 V2000
    1.2760    5.1962    0.0000 N   0  0  0  0  0  0  0  0  0  0  0  0
    2.7760    5.1962    0.0000 C   0  0  0  0  0  0  0  0  0  0  0  0
    3.5260    6.4952    0.0000 C   0  0  0  0  0  0  0  0  0  0  0  0
    2.7760    7.7942    0.0000 C   0  0  0  0  0  0  0  0  0  0  0  0
    3.5260    9.0933    0.0000 C   0  0  0  0  0  0  0  0  0  0  0  0
    1.2760    7.7942    0.0000 C   0  0  0  0  0  0  0  0  0  0  0  0
    3.5260    3.8971    0.0000 C   0  0  0  0  0  0  0  0  0  0  0  0
    5.0260    3.8971    0.0000 O   0  0  0  0  0  0  0  0  0  0  0  0
    2.7760    2.5981    0.0000 N   0  0  0  0  0  0  0  0  0  0  0  0
    3.5260    1.2990    0.0000 C   0  0  0  0  0  0  0  0  0  0  0  0
    5.0260    1.2990    0.0000 C   0  0  0  0  0  0  0  0  0  0  0  0
    5.7760    0.0000    0.0000 C   0  0  0  0  0  0  0  0  0  0  0  0
    7.2760    0.0000    0.0000 C   0  0  0  0  0  0  0  0  0  0  0  0
    5.0260   -1.2990    0.0000 C   0  0  0  0  0  0  0  0  0  0  0  0
    2.7760    0.0000    0.0000 C   0  0  0  0  0  0  0  0  0  0  0  0
    3.5260   -1.2990    0.0000 O   0  0  0  0  0  0  0  0  0  0  0  0
    1.2760    0.0000    0.0000 N   0  0  0  0  0  0  0  0  0  0  0  0
    0.3943    1.2135    0.0000 C   0  0  0  0  0  0  0  0  0  0  0  0
   -1.0323    0.7500    0.0000 C   0  0  0  0  0  0  0  0  0  0  0  0
   -1.0323   -0.7500    0.0000 C   0  0  0  0  0  0  0  0  0  0  0  0
    0.3943   -1.2135    0.0000 C   0  0  0  0  0  0  0  0  0  0  0  0
    0.8578   -2.6401    0.0000 C   0  0  0  0  0  0  0  0  0  0  0  0
    2.3250   -2.9520    0.0000 O   0  0  0  0  0  0  0  0  0  0  0  0
   -0.1459   -3.7548    0.0000 N   0  0  0  0  0  0  0  0  0  0  0  0
    0.3177   -5.1814    0.0000 C   0  0  0  0  0  0  0  0  0  0  0  0
   -0.6860   -6.2961    0.0000 C   0  0  0  0  0  0  0  0  0  0  0  0
   -0.2225   -7.7227    0.0000 C   0  0  0  0  0  0  0  0  0  0  0  0
   -1.2262   -8.8374    0.0000 C   0  0  0  0  0  0  0  0  0  0  0  0
    1.2447   -8.0346    0.0000 C   0  0  0  0  0  0  0  0  0  0  0  0
    1.7849   -5.4933    0.0000 C   0  0  0  0  0  0  0  0  0  0  0  0
    2.7886   -4.3786    0.0000 O   0  0  0  0  0  0  0  0  0  0  0  0
    2.2484   -6.9199    0.0000 N   0  0  0  0  0  0  0  0  0  0  0  0
    3.7156   -7.2317    0.0000 C   0  0  0  0  0  0  0  0  0  0  0  0
    4.7193   -6.1170    0.0000 C   0  0  0  0  0  0  0  0  0  0  0  0
    6.1865   -6.4289    0.0000 C   0  0  0  0  0  0  0  0  0  0  0  0
    7.1902   -5.3142    0.0000 C   0  0  0  0  0  0  0  0  0  0  0  0
    6.6501   -7.8555    0.0000 C   0  0  0  0  0  0  0  0  0  0  0  0
    4.1791   -8.6583    0.0000 C   0  0  0  0  0  0  0  0  0  0  0  0
    5.6464   -8.9702    0.0000 O   0  0  0  0  0  0  0  0  0  0  0  0
    3.1755   -9.7730    0.0000 N   0  0  0  0  0  0  0  0  0  0  0  0
    1.6837   -9.6162    0.0000 C   0  0  0  0  0  0  0  0  0  0  0  0
    1.0736  -10.9866    0.0000 C   0  0  0  0  0  0  0  0  0  0  0  0
    2.1883  -11.9903    0.0000 C   0  0  0  0  0  0  0  0  0  0  0  0
    3.4873  -11.2403    0.0000 C   0  0  0  0  0  0  0  0  0  0  0  0
    4.8576  -11.8504    0.0000 C   0  0  0  0  0  0  0  0  0  0  0  0
    6.0712  -10.9687    0.0000 O   0  0  0  0  0  0  0  0  0  0  0  0
    5.0144  -13.3421    0.0000 N   0  0  0  0  0  0  0  0  0  0  0  0
    6.3847  -13.9522    0.0000 C   0  0  0  0  0  0  0  0  0  0  0  0
    6.5415  -15.4440    0.0000 C   0  0  0  0  0  0  0  0  0  0  0  0
    7.9119  -16.0541    0.0000 C   0  0  0  0  0  0  0  0  0  0  0  0
    9.2822  -16.6642    0.0000 C   0  0  0  0  0  0  0  0  0  0  0  0
    7.5983  -13.0706    0.0000 C   0  0  0  0  0  0  0  0  0  0  0  0
    7.4415  -11.5788    0.0000 O   0  0  0  0  0  0  0  0  0  0  0  0
    8.9686  -13.6807    0.0000 O   0  0  0  0  0  0  0  0  0  0  0  0
  2  1  1  6
  2  3  1  0
  3  4  1  0
  4  5  1  0
  4  6  1  0
  2  7  1  0
  7  8  2  0
  7  9  1  0
  9 10  1  0
 10 11  1  1
 11 12  1  0
 12 13  1  0
 12 14  1  0
 10 15  1  0
 15 16  2  0
 15 17  1  0
 17 18  1  0
 18 19  1  0
 19 20  1  0
 20 21  1  0
 21 22  1  6
 22 23  2  0
 22 24  1  0
 24 25  1  0
 25 26  1  1
 26 27  1  0
 27 28  1  0
 27 29  1  0
 25 30  1  0
 30 31  2  0
 30 32  1  0
 32 33  1  0
 33 34  1  1
 34 35  1  0
 35 36  1  0
 35 37  1  0
 33 38  1  0
 38 39  2  0
 38 40  1  0
 40 41  1  0
 41 42  1  0
 42 43  1  0
 43 44  1  0
 44 45  1  6
 45 46  2  0
 45 47  1  0
 47 48  1  0
 48 49  1  6
 49 50  1  0
 50 51  3  0
 48 52  1  0
 52 53  2  0
 52 54  1  0
 21 17  1  0
 44 40  1  0
M  END
$$$$

     RDKit          2D

 55 56  0  0  0  0  0  0  0  0999 V2000
    1.2760    5.1962    0.0000 N   0  0  0  0  0  0  0  0  0  0  0  0
    0.5260    6.4952    0.0000 C   0  0  0  0  0  0  0  0  0  0  0  0
    2.7760    5.1962    0.0000 C   0  0  0  0  0  0  0  0  0  0  0  0
    3.5260    6.4952    0.0000 C   0  0  0  0  0  0  0  0  0  0  0  0
    2.7760    7.7942    0.0000 C   0  0  0  0  0  0  0  0  0  0  0  0
    3.5260    9.0933    0.0000 C   0  0  0  0  0  0  0  0  0  0  0  0
    1.2760    7.7942    0.0000 C   0  0  0  0  0  0  0  0  0  0  0  0
    3.5260    3.8971    0.0000 C   0  0  0  0  0  0  0  0  0  0  0  0
    5.0260    3.8971    0.0000 O   0  0  0  0  0  0  0  0  0  0  0  0
    2.7760    2.5981    0.0000 N   0  0  0  0  0  0  0  0  0  0  0  0
    3.5260    1.2990    0.0000 C   0  0  0  0  0  0  0  0  0  0  0  0
    5.0260    1.2990    0.0000 C   0  0  0  0  0  0  0  0  0  0  0  0
    5.7760    0.0000    0.0000 C   0  0  0  0  0  0  0  0  0  0  0  0
    7.2760    0.0000    0.0000 C   0  0  0  0  0  0  0  0  0  0  0  0
    5.0260   -1.2990    0.0000 C   0  0  0  0  0  0  0  0  0  0  0  0
    2.7760    0.0000    0.0000 C   0  0  0  0  0  0  0  0  0  0  0  0
    3.5260   -1.2990    0.0000 O   0  0  0  0  0  0  0  0  0  0  0  0
    1.2760    0.0000    0.0000 N   0  0  0  0  0  0  0  0  0  0  0  0
    0.3943    1.2135    0.0000 C   0  0  0  0  0  0  0  0  0  0  0  0
   -1.0323    0.7500    0.0000 C   0  0  0  0  0  0  0  0  0  0  0  0
   -1.0323   -0.7500    0.0000 C   0  0  0  0  0  0  0  0  0  0  0  0
    0.3943   -1.2135    0.0000 C   0  0  0  0  0  0  0  0  0  0  0  0
    0.8578   -2.6401    0.0000 C   0  0  0  0  0  0  0  0  0  0  0  0
    2.3250   -2.9520    0.0000 O   0  0  0  0  0  0  0  0  0  0  0  0
   -0.1459   -3.7548    0.0000 N   0  0  0  0  0  0  0  0  0  0  0  0
    0.3177   -5.1814    0.0000 C   0  0  0  0  0  0  0  0  0  0  0  0
   -0.6860   -6.2961    0.0000 C   0  0  0  0  0  0  0  0  0  0  0  0
   -0.2225   -7.7227    0.0000 C   0  0  0  0  0  0  0  0  0  0  0  0
   -1.2262   -8.8374    0.0000 C   0  0  0  0  0  0  0  0  0  0  0  0
    1.2447   -8.0346    0.0000 C   0  0  0  0  0  0  0  0  0  0  0  0
    1.7849   -5.4933    0.0000 C   0  0  0  0  0  0  0  0  0  0  0  0
    2.7886   -4.3786    0.0000 O   0  0  0  0  0  0  0  0  0  0  0  0
    2.2484   -6.9199    0.0000 N   0  0  0  0  0  0  0  0  0  0  0  0
    3.7156   -7.2317    0.0000 C   0  0  0  0  0  0  0  0  0  0  0  0
    4.7193   -6.1170    0.0000 C   0  0  0  0  0  0  0  0  0  0  0  0
    6.1865   -6.4289    0.0000 C   0  0  0  0  0  0  0  0  0  0  0  0
    7.1902   -5.3142    0.0000 C   0  0  0  0  0  0  0  0  0  0  0  0
    6.6501   -7.8555    0.0000 C   0  0  0  0  0  0  0  0  0  0  0  0
    4.1791   -8.6583    0.0000 C   0  0  0  0  0  0  0  0  0  0  0  0
    5.6464   -8.9702    0.0000 O   0  0  0  0  0  0  0  0  0  0  0  0
    3.1755   -9.7730    0.0000 N   0  0  0  0  0  0  0  0  0  0  0  0
    1.6837   -9.6162    0.0000 C   0  0  0  0  0  0  0  0  0  0  0  0
    1.0736  -10.9866    0.0000 C   0  0  0  0  0  0  0  0  0  0  0  0
    2.1883  -11.9903    0.0000 C   0  0  0  0  0  0  0  0  0  0  0  0
    3.4873  -11.2403    0.0000 C   0  0  0  0  0  0  0  0  0  0  0  0
    4.8576  -11.8504    0.0000 C   0  0  0  0  0  0  0  0  0  0  0  0
    6.0712  -10.9687    0.0000 O   0  0  0  0  0  0  0  0  0  0  0  0
    5.0144  -13.3421    0.0000 N   0  0  0  0  0  0  0  0  0  0  0  0
    6.3847  -13.9522    0.0000 C   0  0  0  0  0  0  0  0  0  0  0  0
    6.5415  -15.4440    0.0000 C   0  0  0  0  0  0  0  0  0  0  0  0
    7.9119  -16.0541    0.0000 C   0  0  0  0  0  0  0  0  0  0  0  0
    9.2822  -16.6642    0.0000 C   0  0  0  0  0  0  0  0  0  0  0  0
    7.5983  -13.0706    0.0000 C   0  0  0  0  0  0  0  0  0  0  0  0
    7.4415  -11.5788    0.0000 O   0  0  0  0  0  0  0  0  0  0  0  0
    8.9686  -13.6807    0.0000 O   0  0  0  0  0  0  0  0  0  0  0  0
  1  2  1  0
  1  3  1  0
  3  4  1  1
  4  5  1  0
  5  6  1  0
  5  7  1  0
  3  8  1  0
  8  9  2  0
  8 10  1  0
 10 11  1  0
 11 12  1  1
 12 13  1  0
 13 14  1  0
 13 15  1  0
 11 16  1  0
 16 17  2  0
 16 18  1  0
 18 19  1  0
 19 20  1  0
 20 21  1  0
 21 22  1  0
 22 23  1  6
 23 24  2  0
 23 25  1  0
 25 26  1  0
 26 27  1  1
 27 28  1  0
 28 29  1  0
 28 30  1  0
 26 31  1  0
 31 32  2  0
 31 33  1  0
 33 34  1  0
 34 35  1  1
 35 36  1  0
 36 37  1  0
 36 38  1  0
 34 39  1  0
 39 40  2  0
 39 41  1  0
 41 42  1  0
 42 43  1  0
 43 44  1  0
 44 45  1  0
 45 46  1  6
 46 47  2  0
 46 48  1  0
 48 49  1  0
 49 50  1  6
 50 51  1  0
 51 52  3  0
 49 53  1  0
 53 54  2  0
 53 55  1  0
 22 18  1  0
 45 41  1  0
M  END
$$$$

     RDKit          2D

 55 56  0  0  0  0  0  0  0  0999 V2000
    1.2760    5.1962    0.0000 N   0  0  0  0  0  0  0  0  0  0  0  0
    0.5260    6.4952    0.0000 C   0  0  0  0  0  0  0  0  0  0  0  0
    2.7760    5.1962    0.0000 C   0  0  0  0  0  0  0  0  0  0  0  0
    3.5260    6.4952    0.0000 C   0  0  0  0  0  0  0  0  0  0  0  0
    2.7760    7.7942    0.0000 C   0  0  0  0  0  0  0  0  0  0  0  0
    3.5260    9.0933    0.0000 C   0  0  0  0  0  0  0  0  0  0  0  0
    1.2760    7.7942    0.0000 C   0  0  0  0  0  0  0  0  0  0  0  0
    3.5260    3.8971    0.0000 C   0  0  0  0  0  0  0  0  0  0  0  0
    5.0260    3.8971    0.0000 O   0  0  0  0  0  0  0  0  0  0  0  0
    2.7760    2.5981    0.0000 N   0  0  0  0  0  0  0  0  0  0  0  0
    3.5260    1.2990    0.0000 C   0  0  0  0  0  0  0  0  0  0  0  0
    5.0260    1.2990    0.0000 C   0  0  0  0  0  0  0  0  0  0  0  0
    5.7760    0.0000    0.0000 C   0  0  0  0  0  0  0  0  0  0  0  0
    7.2760    0.0000    0.0000 C   0  0  0  0  0  0  0  0  0  0  0  0
    5.0260   -1.2990    0.0000 C   0  0  0  0  0  0  0  0  0  0  0  0
    2.7760    0.0000    0.0000 C   0  0  0  0  0  0  0  0  0  0  0  0
    3.5260   -1.2990    0.0000 O   0  0  0  0  0  0  0  0  0  0  0  0
    1.2760    0.0000    0.0000 N   0  0  0  0  0  0  0  0  0  0  0  0
    0.3943    1.2135    0.0000 C   0  0  0  0  0  0  0  0  0  0  0  0
   -1.0323    0.7500    0.0000 C   0  0  0  0  0  0  0  0  0  0  0  0
   -1.0323   -0.7500    0.0000 C   0  0  0  0  0  0  0  0  0  0  0  0
    0.3943   -1.2135    0.0000 C   0  0  0  0  0  0  0  0  0  0  0  0
    0.8578   -2.6401    0.0000 C   0  0  0  0  0  0  0  0  0  0  0  0
    2.3250   -2.9520    0.0000 O   0  0  0  0  0  0  0  0  0  0  0  0
   -0.1459   -3.7548    0.0000 N   0  0  0  0  0  0  0  0  0  0  0  0
    0.3177   -5.1814    0.0000 C   0  0  0  0  0  0  0  0  0  0  0  0
   -0.6860   -6.2961    0.0000 C   0  0  0  0  0  0  0  0  0  0  0  0
   -0.2225   -7.7227    0.0000 C   0  0  0  0  0  0  0  0  0  0  0  0
   -1.2262   -8.8374    0.0000 C   0  0  0  0  0  0  0  0  0  0  0  0
    1.2447   -8.0346    0.0000 C   0  0  0  0  0  0  0  0  0  0  0  0
    1.7849   -5.4933    0.0000 C   0  0  0  0  0  0  0  0  0  0  0  0
    2.7886   -4.3786    0.0000 O   0  0  0  0  0  0  0  0  0  0  0  0
    2.2484   -6.9199    0.0000 N   0  0  0  0  0  0  0  0  0  0  0  0
    3.7156   -7.2317    0.0000 C   0  0  0  0  0  0  0  0  0  0  0  0
    4.7193   -6.1170    0.0000 C   0  0  0  0  0  0  0  0  0  0  0  0
    6.1865   -6.4289    0.0000 C   0  0  0  0  0  0  0  0  0  0  0  0
    7.1902   -5.3142    0.0000 C   0  0  0  0  0  0  0  0  0  0  0  0
    6.6501   -7.8555    0.0000 C   0  0  0  0  0  0  0  0  0  0  0  0
    4.1791   -8.6583    0.0000 C   0  0  0  0  0  0  0  0  0  0  0  0
    5.6464   -8.9702    0.0000 O   0  0  0  0  0  0  0  0  0  0  0  0
    3.1755   -9.7730    0.0000 N   0  0  0  0  0  0  0  0  0  0  0  0
    1.6837   -9.6162    0.0000 C   0  0  0  0  0  0  0  0  0  0  0  0
    1.0736  -10.9866    0.0000 C   0  0  0  0  0  0  0  0  0  0  0  0
    2.1883  -11.9903    0.0000 C   0  0  0  0  0  0  0  0  0  0  0  0
    3.4873  -11.2403    0.0000 C   0  0  0  0  0  0  0  0  0  0  0  0
    4.8576  -11.8504    0.0000 C   0  0  0  0  0  0  0  0  0  0  0  0
    6.0712  -10.9687    0.0000 O   0  0  0  0  0  0  0  0  0  0  0  0
    5.0144  -13.3421    0.0000 N   0  0  0  0  0  0  0  0  0  0  0  0
    6.3847  -13.9522    0.0000 C   0  0  0  0  0  0  0  0  0  0  0  0
    6.5415  -15.4440    0.0000 C   0  0  0  0  0  0  0  0  0  0  0  0
    7.9119  -16.0541    0.0000 C   0  0  0  0  0  0  0  0  0  0  0  0
    9.2822  -16.6642    0.0000 C   0  0  0  0  0  0  0  0  0  0  0  0
    7.5983  -13.0706    0.0000 C   0  0  0  0  0  0  0  0  0  0  0  0
    7.4415  -11.5788    0.0000 O   0  0  0  0  0  0  0  0  0  0  0  0
    8.9686  -13.6807    0.0000 O   0  0  0  0  0  0  0  0  0  0  0  0
  1  2  1  0
  1  3  1  0
  3  4  1  6
  4  5  1  0
  5  6  1  0
  5  7  1  0
  3  8  1  0
  8  9  2  0
  8 10  1  0
 10 11  1  0
 11 12  1  1
 12 13  1  0
 13 14  1  0
 13 15  1  0
 11 16  1  0
 16 17  2  0
 16 18  1  0
 18 19  1  0
 19 20  1  0
 20 21  1  0
 21 22  1  0
 22 23  1  6
 23 24  2  0
 23 25  1  0
 25 26  1  0
 26 27  1  1
 27 28  1  0
 28 29  1  0
 28 30  1  0
 26 31  1  0
 31 32  2  0
 31 33  1  0
 33 34  1  0
 34 35  1  1
 35 36  1  0
 36 37  1  0
 36 38  1  0
 34 39  1  0
 39 40  2  0
 39 41  1  0
 41 42  1  0
 42 43  1  0
 43 44  1  0
 44 45  1  0
 45 46  1  6
 46 47  2  0
 46 48  1  0
 48 49  1  0
 49 50  1  6
 50 51  1  0
 51 52  3  0
 49 53  1  0
 53 54  2  0
 53 55  1  0
 22 18  1  0
 45 41  1  0
M  END
$$$$

     RDKit          2D

 54 55  0  0  0  0  0  0  0  0999 V2000
    1.2760    5.1962    0.0000 N   0  0  0  0  0  0  0  0  0  0  0  0
    2.7760    5.1962    0.0000 C   0  0  0  0  0  0  0  0  0  0  0  0
    3.5260    6.4952    0.0000 C   0  0  0  0  0  0  0  0  0  0  0  0
    2.7760    7.7942    0.0000 C   0  0  0  0  0  0  0  0  0  0  0  0
    3.5260    9.0933    0.0000 C   0  0  0  0  0  0  0  0  0  0  0  0
    1.2760    7.7942    0.0000 C   0  0  0  0  0  0  0  0  0  0  0  0
    3.5260    3.8971    0.0000 C   0  0  0  0  0  0  0  0  0  0  0  0
    5.0260    3.8971    0.0000 O   0  0  0  0  0  0  0  0  0  0  0  0
    2.7760    2.5981    0.0000 N   0  0  0  0  0  0  0  0  0  0  0  0
    3.5260    1.2990    0.0000 C   0  0  0  0  0  0  0  0  0  0  0  0
    5.0260    1.2990    0.0000 C   0  0  0  0  0  0  0  0  0  0  0  0
    5.7760    0.0000    0.0000 C   0  0  0  0  0  0  0  0  0  0  0  0
    7.2760    0.0000    0.0000 C   0  0  0  0  0  0  0  0  0  0  0  0
    5.0260   -1.2990    0.0000 C   0  0  0  0  0  0  0  0  0  0  0  0
    2.7760    0.0000    0.0000 C   0  0  0  0  0  0  0  0  0  0  0  0
    3.5260   -1.2990    0.0000 O   0  0  0  0  0  0  0  0  0  0  0  0
    1.2760    0.0000    0.0000 N   0  0  0  0  0  0  0  0  0  0  0  0
    0.3943    1.2135    0.0000 C   0  0  0  0  0  0  0  0  0  0  0  0
   -1.0323    0.7500    0.0000 C   0  0  0  0  0  0  0  0  0  0  0  0
   -1.0323   -0.7500    0.0000 C   0  0  0  0  0  0  0  0  0  0  0  0
    0.3943   -1.2135    0.0000 C   0  0  0  0  0  0  0  0  0  0  0  0
    0.8578   -2.6401    0.0000 C   0  0  0  0  0  0  0  0  0  0  0  0
    2.3250   -2.9520    0.0000 O   0  0  0  0  0  0  0  0  0  0  0  0
   -0.1459   -3.7548    0.0000 N   0  0  0  0  0  0  0  0  0  0  0  0
    0.3177   -5.1814    0.0000 C   0  0  0  0  0  0  0  0  0  0  0  0
   -0.6860   -6.2961    0.0000 C   0  0  0  0  0  0  0  0  0  0  0  0
   -0.2225   -7.7227    0.0000 C   0  0  0  0  0  0  0  0  0  0  0  0
   -1.2262   -8.8374    0.0000 C   0  0  0  0  0  0  0  0  0  0  0  0
    1.2447   -8.0346    0.0000 C   0  0  0  0  0  0  0  0  0  0  0  0
    1.7849   -5.4933    0.0000 C   0  0  0  0  0  0  0  0  0  0  0  0
    2.7886   -4.3786    0.0000 O   0  0  0  0  0  0  0  0  0  0  0  0
    2.2484   -6.9199    0.0000 N   0  0  0  0  0  0  0  0  0  0  0  0
    3.7156   -7.2317    0.0000 C   0  0  0  0  0  0  0  0  0  0  0  0
    4.7193   -6.1170    0.0000 C   0  0  0  0  0  0  0  0  0  0  0  0
    6.1865   -6.4289    0.0000 C   0  0  0  0  0  0  0  0  0  0  0  0
    7.1902   -5.3142    0.0000 C   0  0  0  0  0  0  0  0  0  0  0  0
    6.6501   -7.8555    0.0000 C   0  0  0  0  0  0  0  0  0  0  0  0
    4.1791   -8.6583    0.0000 C   0  0  0  0  0  0  0  0  0  0  0  0
    5.6464   -8.9702    0.0000 O   0  0  0  0  0  0  0  0  0  0  0  0
    3.1755   -9.7730    0.0000 N   0  0  0  0  0  0  0  0  0  0  0  0
    1.6837   -9.6162    0.0000 C   0  0  0  0  0  0  0  0  0  0  0  0
    1.0736  -10.9866    0.0000 C   0  0  0  0  0  0  0  0  0  0  0  0
    2.1883  -11.9903    0.0000 C   0  0  0  0  0  0  0  0  0  0  0  0
    3.4873  -11.2403    0.0000 C   0  0  0  0  0  0  0  0  0  0  0  0
    4.8576  -11.8504    0.0000 C   0  0  0  0  0  0  0  0  0  0  0  0
    6.0712  -10.9687    0.0000 O   0  0  0  0  0  0  0  0  0  0  0  0
    5.0144  -13.3421    0.0000 N   0  0  0  0  0  0  0  0  0  0  0  0
    6.3847  -13.9522    0.0000 C   0  0  0  0  0  0  0  0  0  0  0  0
    6.5415  -15.4440    0.0000 C   0  0  0  0  0  0  0  0  0  0  0  0
    7.9119  -16.0541    0.0000 C   0  0  0  0  0  0  0  0  0  0  0  0
    9.2822  -16.6642    0.0000 C   0  0  0  0  0  0  0  0  0  0  0  0
    7.5983  -13.0706    0.0000 C   0  0  0  0  0  0  0  0  0  0  0  0
    7.4415  -11.5788    0.0000 O   0  0  0  0  0  0  0  0  0  0  0  0
    8.9686  -13.6807    0.0000 O   0  0  0  0  0  0  0  0  0  0  0  0
  2  1  1  1
  2  3  1  0
  3  4  1  0
  4  5  1  0
  4  6  1  0
  2  7  1  0
  7  8  2  0
  7  9  1  0
  9 10  1  0
 10 11  1  6
 11 12  1  0
 12 13  1  0
 12 14  1  0
 10 15  1  0
 15 16  2  0
 15 17  1  0
 17 18  1  0
 18 19  1  0
 19 20  1  0
 20 21  1  0
 21 22  1  6
 22 23  2  0
 22 24  1  0
 24 25  1  0
 25 26  1  1
 26 27  1  0
 27 28  1  0
 27 29  1  0
 25 30  1  0
 30 31  2  0
 30 32  1  0
 32 33  1  0
 33 34  1  1
 34 35  1  0
 35 36  1  0
 35 37  1  0
 33 38  1  0
 38 39  2  0
 38 40  1  0
 40 41  1  0
 41 42  1  0
 42 43  1  0
 43 44  1  0
 44 45  1  6
 45 46  2  0
 45 47  1  0
 47 48  1  0
 48 49  1  6
 49 50  1  0
 50 51  3  0
 48 52  1  0
 52 53  2  0
 52 54  1  0
 21 17  1  0
 44 40  1  0
M  END
$$$$

     RDKit          2D

 54 55  0  0  0  0  0  0  0  0999 V2000
    1.2760    5.1962    0.0000 N   0  0  0  0  0  0  0  0  0  0  0  0
    2.7760    5.1962    0.0000 C   0  0  0  0  0  0  0  0  0  0  0  0
    3.5260    6.4952    0.0000 C   0  0  0  0  0  0  0  0  0  0  0  0
    2.7760    7.7942    0.0000 C   0  0  0  0  0  0  0  0  0  0  0  0
    3.5260    9.0933    0.0000 C   0  0  0  0  0  0  0  0  0  0  0  0
    1.2760    7.7942    0.0000 C   0  0  0  0  0  0  0  0  0  0  0  0
    3.5260    3.8971    0.0000 C   0  0  0  0  0  0  0  0  0  0  0  0
    5.0260    3.8971    0.0000 O   0  0  0  0  0  0  0  0  0  0  0  0
    2.7760    2.5981    0.0000 N   0  0  0  0  0  0  0  0  0  0  0  0
    3.5260    1.2990    0.0000 C   0  0  0  0  0  0  0  0  0  0  0  0
    5.0260    1.2990    0.0000 C   0  0  0  0  0  0  0  0  0  0  0  0
    5.7760    0.0000    0.0000 C   0  0  0  0  0  0  0  0  0  0  0  0
    7.2760    0.0000    0.0000 C   0  0  0  0  0  0  0  0  0  0  0  0
    5.0260   -1.2990    0.0000 C   0  0  0  0  0  0  0  0  0  0  0  0
    2.7760    0.0000    0.0000 C   0  0  0  0  0  0  0  0  0  0  0  0
    3.5260   -1.2990    0.0000 O   0  0  0  0  0  0  0  0  0  0  0  0
    1.2760    0.0000    0.0000 N   0  0  0  0  0  0  0  0  0  0  0  0
    0.3943    1.2135    0.0000 C   0  0  0  0  0  0  0  0  0  0  0  0
   -1.0323    0.7500    0.0000 C   0  0  0  0  0  0  0  0  0  0  0  0
   -1.0323   -0.7500    0.0000 C   0  0  0  0  0  0  0  0  0  0  0  0
    0.3943   -1.2135    0.0000 C   0  0  0  0  0  0  0  0  0  0  0  0
    0.8578   -2.6401    0.0000 C   0  0  0  0  0  0  0  0  0  0  0  0
    2.3250   -2.9520    0.0000 O   0  0  0  0  0  0  0  0  0  0  0  0
   -0.1459   -3.7548    0.0000 N   0  0  0  0  0  0  0  0  0  0  0  0
    0.3177   -5.1814    0.0000 C   0  0  0  0  0  0  0  0  0  0  0  0
   -0.6860   -6.2961    0.0000 C   0  0  0  0  0  0  0  0  0  0  0  0
   -0.2225   -7.7227    0.0000 C   0  0  0  0  0  0  0  0  0  0  0  0
   -1.2262   -8.8374    0.0000 C   0  0  0  0  0  0  0  0  0  0  0  0
    1.2447   -8.0346    0.0000 C   0  0  0  0  0  0  0  0  0  0  0  0
    1.7849   -5.4933    0.0000 C   0  0  0  0  0  0  0  0  0  0  0  0
    2.7886   -4.3786    0.0000 O   0  0  0  0  0  0  0  0  0  0  0  0
    2.2484   -6.9199    0.0000 N   0  0  0  0  0  0  0  0  0  0  0  0
    3.7156   -7.2317    0.0000 C   0  0  0  0  0  0  0  0  0  0  0  0
    4.7193   -6.1170    0.0000 C   0  0  0  0  0  0  0  0  0  0  0  0
    6.1865   -6.4289    0.0000 C   0  0  0  0  0  0  0  0  0  0  0  0
    7.1902   -5.3142    0.0000 C   0  0  0  0  0  0  0  0  0  0  0  0
    6.6501   -7.8555    0.0000 C   0  0  0  0  0  0  0  0  0  0  0  0
    4.1791   -8.6583    0.0000 C   0  0  0  0  0  0  0  0  0  0  0  0
    5.6464   -8.9702    0.0000 O   0  0  0  0  0  0  0  0  0  0  0  0
    3.1755   -9.7730    0.0000 N   0  0  0  0  0  0  0  0  0  0  0  0
    1.6837   -9.6162    0.0000 C   0  0  0  0  0  0  0  0  0  0  0  0
    1.0736  -10.9866    0.0000 C   0  0  0  0  0  0  0  0  0  0  0  0
    2.1883  -11.9903    0.0000 C   0  0  0  0  0  0  0  0  0  0  0  0
    3.4873  -11.2403    0.0000 C   0  0  0  0  0  0  0  0  0  0  0  0
    4.8576  -11.8504    0.0000 C   0  0  0  0  0  0  0  0  0  0  0  0
    6.0712  -10.9687    0.0000 O   0  0  0  0  0  0  0  0  0  0  0  0
    5.0144  -13.3421    0.0000 N   0  0  0  0  0  0  0  0  0  0  0  0
    6.3847  -13.9522    0.0000 C   0  0  0  0  0  0  0  0  0  0  0  0
    6.5415  -15.4440    0.0000 C   0  0  0  0  0  0  0  0  0  0  0  0
    7.9119  -16.0541    0.0000 C   0  0  0  0  0  0  0  0  0  0  0  0
    9.2822  -16.6642    0.0000 C   0  0  0  0  0  0  0  0  0  0  0  0
    7.5983  -13.0706    0.0000 C   0  0  0  0  0  0  0  0  0  0  0  0
    7.4415  -11.5788    0.0000 O   0  0  0  0  0  0  0  0  0  0  0  0
    8.9686  -13.6807    0.0000 O   0  0  0  0  0  0  0  0  0  0  0  0
  2  1  1  6
  2  3  1  0
  3  4  1  0
  4  5  1  0
  4  6  1  0
  2  7  1  0
  7  8  2  0
  7  9  1  0
  9 10  1  0
 10 11  1  6
 11 12  1  0
 12 13  1  0
 12 14  1  0
 10 15  1  0
 15 16  2  0
 15 17  1  0
 17 18  1  0
 18 19  1  0
 19 20  1  0
 20 21  1  0
 21 22  1  6
 22 23  2  0
 22 24  1  0
 24 25  1  0
 25 26  1  1
 26 27  1  0
 27 28  1  0
 27 29  1  0
 25 30  1  0
 30 31  2  0
 30 32  1  0
 32 33  1  0
 33 34  1  1
 34 35  1  0
 35 36  1  0
 35 37  1  0
 33 38  1  0
 38 39  2  0
 38 40  1  0
 40 41  1  0
 41 42  1  0
 42 43  1  0
 43 44  1  0
 44 45  1  6
 45 46  2  0
 45 47  1  0
 47 48  1  0
 48 49  1  6
 49 50  1  0
 50 51  3  0
 48 52  1  0
 52 53  2  0
 52 54  1  0
 21 17  1  0
 44 40  1  0
M  END
$$$$

     RDKit          2D

 55 56  0  0  0  0  0  0  0  0999 V2000
    1.2760    5.1962    0.0000 N   0  0  0  0  0  0  0  0  0  0  0  0
    0.5260    6.4952    0.0000 C   0  0  0  0  0  0  0  0  0  0  0  0
    2.7760    5.1962    0.0000 C   0  0  0  0  0  0  0  0  0  0  0  0
    3.5260    6.4952    0.0000 C   0  0  0  0  0  0  0  0  0  0  0  0
    2.7760    7.7942    0.0000 C   0  0  0  0  0  0  0  0  0  0  0  0
    3.5260    9.0933    0.0000 C   0  0  0  0  0  0  0  0  0  0  0  0
    1.2760    7.7942    0.0000 C   0  0  0  0  0  0  0  0  0  0  0  0
    3.5260    3.8971    0.0000 C   0  0  0  0  0  0  0  0  0  0  0  0
    5.0260    3.8971    0.0000 O   0  0  0  0  0  0  0  0  0  0  0  0
    2.7760    2.5981    0.0000 N   0  0  0  0  0  0  0  0  0  0  0  0
    3.5260    1.2990    0.0000 C   0  0  0  0  0  0  0  0  0  0  0  0
    5.0260    1.2990    0.0000 C   0  0  0  0  0  0  0  0  0  0  0  0
    5.7760    0.0000    0.0000 C   0  0  0  0  0  0  0  0  0  0  0  0
    7.2760    0.0000    0.0000 C   0  0  0  0  0  0  0  0  0  0  0  0
    5.0260   -1.2990    0.0000 C   0  0  0  0  0  0  0  0  0  0  0  0
    2.7760    0.0000    0.0000 C   0  0  0  0  0  0  0  0  0  0  0  0
    3.5260   -1.2990    0.0000 O   0  0  0  0  0  0  0  0  0  0  0  0
    1.2760    0.0000    0.0000 N   0  0  0  0  0  0  0  0  0  0  0  0
    0.3943    1.2135    0.0000 C   0  0  0  0  0  0  0  0  0  0  0  0
   -1.0323    0.7500    0.0000 C   0  0  0  0  0  0  0  0  0  0  0  0
   -1.0323   -0.7500    0.0000 C   0  0  0  0  0  0  0  0  0  0  0  0
    0.3943   -1.2135    0.0000 C   0  0  0  0  0  0  0  0  0  0  0  0
    0.8578   -2.6401    0.0000 C   0  0  0  0  0  0  0  0  0  0  0  0
    2.3250   -2.9520    0.0000 O   0  0  0  0  0  0  0  0  0  0  0  0
   -0.1459   -3.7548    0.0000 N   0  0  0  0  0  0  0  0  0  0  0  0
    0.3177   -5.1814    0.0000 C   0  0  0  0  0  0  0  0  0  0  0  0
   -0.6860   -6.2961    0.0000 C   0  0  0  0  0  0  0  0  0  0  0  0
   -0.2225   -7.7227    0.0000 C   0  0  0  0  0  0  0  0  0  0  0  0
   -1.2262   -8.8374    0.0000 C   0  0  0  0  0  0  0  0  0  0  0  0
    1.2447   -8.0346    0.0000 C   0  0  0  0  0  0  0  0  0  0  0  0
    1.7849   -5.4933    0.0000 C   0  0  0  0  0  0  0  0  0  0  0  0
    2.7886   -4.3786    0.0000 O   0  0  0  0  0  0  0  0  0  0  0  0
    2.2484   -6.9199    0.0000 N   0  0  0  0  0  0  0  0  0  0  0  0
    3.7156   -7.2317    0.0000 C   0  0  0  0  0  0  0  0  0  0  0  0
    4.7193   -6.1170    0.0000 C   0  0  0  0  0  0  0  0  0  0  0  0
    6.1865   -6.4289    0.0000 C   0  0  0  0  0  0  0  0  0  0  0  0
    7.1902   -5.3142    0.0000 C   0  0  0  0  0  0  0  0  0  0  0  0
    6.6501   -7.8555    0.0000 C   0  0  0  0  0  0  0  0  0  0  0  0
    4.1791   -8.6583    0.0000 C   0  0  0  0  0  0  0  0  0  0  0  0
    5.6464   -8.9702    0.0000 O   0  0  0  0  0  0  0  0  0  0  0  0
    3.1755   -9.7730    0.0000 N   0  0  0  0  0  0  0  0  0  0  0  0
    1.6837   -9.6162    0.0000 C   0  0  0  0  0  0  0  0  0  0  0  0
    1.0736  -10.9866    0.0000 C   0  0  0  0  0  0  0  0  0  0  0  0
    2.1883  -11.9903    0.0000 C   0  0  0  0  0  0  0  0  0  0  0  0
    3.4873  -11.2403    0.0000 C   0  0  0  0  0  0  0  0  0  0  0  0
    4.8576  -11.8504    0.0000 C   0  0  0  0  0  0  0  0  0  0  0  0
    6.0712  -10.9687    0.0000 O   0  0  0  0  0  0  0  0  0  0  0  0
    5.0144  -13.3421    0.0000 N   0  0  0  0  0  0  0  0  0  0  0  0
    6.3847  -13.9522    0.0000 C   0  0  0  0  0  0  0  0  0  0  0  0
    6.5415  -15.4440    0.0000 C   0  0  0  0  0  0  0  0  0  0  0  0
    7.9119  -16.0541    0.0000 C   0  0  0  0  0  0  0  0  0  0  0  0
    9.2822  -16.6642    0.0000 C   0  0  0  0  0  0  0  0  0  0  0  0
    7.5983  -13.0706    0.0000 C   0  0  0  0  0  0  0  0  0  0  0  0
    7.4415  -11.5788    0.0000 O   0  0  0  0  0  0  0  0  0  0  0  0
    8.9686  -13.6807    0.0000 O   0  0  0  0  0  0  0  0  0  0  0  0
  1  2  1  0
  1  3  1  0
  3  4  1  1
  4  5  1  0
  5  6  1  0
  5  7  1  0
  3  8  1  0
  8  9  2  0
  8 10  1  0
 10 11  1  0
 11 12  1  6
 12 13  1  0
 13 14  1  0
 13 15  1  0
 11 16  1  0
 16 17  2  0
 16 18  1  0
 18 19  1  0
 19 20  1  0
 20 21  1  0
 21 22  1  0
 22 23  1  6
 23 24  2  0
 23 25  1  0
 25 26  1  0
 26 27  1  1
 27 28  1  0
 28 29  1  0
 28 30  1  0
 26 31  1  0
 31 32  2  0
 31 33  1  0
 33 34  1  0
 34 35  1  1
 35 36  1  0
 36 37  1  0
 36 38  1  0
 34 39  1  0
 39 40  2  0
 39 41  1  0
 41 42  1  0
 42 43  1  0
 43 44  1  0
 44 45  1  0
 45 46  1  6
 46 47  2  0
 46 48  1  0
 48 49  1  0
 49 50  1  6
 50 51  1  0
 51 52  3  0
 49 53  1  0
 53 54  2  0
 53 55  1  0
 22 18  1  0
 45 41  1  0
M  END
$$$$

     RDKit          2D

 55 56  0  0  0  0  0  0  0  0999 V2000
    1.2760    5.1962    0.0000 N   0  0  0  0  0  0  0  0  0  0  0  0
    0.5260    6.4952    0.0000 C   0  0  0  0  0  0  0  0  0  0  0  0
    2.7760    5.1962    0.0000 C   0  0  0  0  0  0  0  0  0  0  0  0
    3.5260    6.4952    0.0000 C   0  0  0  0  0  0  0  0  0  0  0  0
    2.7760    7.7942    0.0000 C   0  0  0  0  0  0  0  0  0  0  0  0
    3.5260    9.0933    0.0000 C   0  0  0  0  0  0  0  0  0  0  0  0
    1.2760    7.7942    0.0000 C   0  0  0  0  0  0  0  0  0  0  0  0
    3.5260    3.8971    0.0000 C   0  0  0  0  0  0  0  0  0  0  0  0
    5.0260    3.8971    0.0000 O   0  0  0  0  0  0  0  0  0  0  0  0
    2.7760    2.5981    0.0000 N   0  0  0  0  0  0  0  0  0  0  0  0
    3.5260    1.2990    0.0000 C   0  0  0  0  0  0  0  0  0  0  0  0
    5.0260    1.2990    0.0000 C   0  0  0  0  0  0  0  0  0  0  0  0
    5.7760    0.0000    0.0000 C   0  0  0  0  0  0  0  0  0  0  0  0
    7.2760    0.0000    0.0000 C   0  0  0  0  0  0  0  0  0  0  0  0
    5.0260   -1.2990    0.0000 C   0  0  0  0  0  0  0  0  0  0  0  0
    2.7760    0.0000    0.0000 C   0  0  0  0  0  0  0  0  0  0  0  0
    3.5260   -1.2990    0.0000 O   0  0  0  0  0  0  0  0  0  0  0  0
    1.2760    0.0000    0.0000 N   0  0  0  0  0  0  0  0  0  0  0  0
    0.3943    1.2135    0.0000 C   0  0  0  0  0  0  0  0  0  0  0  0
   -1.0323    0.7500    0.0000 C   0  0  0  0  0  0  0  0  0  0  0  0
   -1.0323   -0.7500    0.0000 C   0  0  0  0  0  0  0  0  0  0  0  0
    0.3943   -1.2135    0.0000 C   0  0  0  0  0  0  0  0  0  0  0  0
    0.8578   -2.6401    0.0000 C   0  0  0  0  0  0  0  0  0  0  0  0
    2.3250   -2.9520    0.0000 O   0  0  0  0  0  0  0  0  0  0  0  0
   -0.1459   -3.7548    0.0000 N   0  0  0  0  0  0  0  0  0  0  0  0
    0.3177   -5.1814    0.0000 C   0  0  0  0  0  0  0  0  0  0  0  0
   -0.6860   -6.2961    0.0000 C   0  0  0  0  0  0  0  0  0  0  0  0
   -0.2225   -7.7227    0.0000 C   0  0  0  0  0  0  0  0  0  0  0  0
   -1.2262   -8.8374    0.0000 C   0  0  0  0  0  0  0  0  0  0  0  0
    1.2447   -8.0346    0.0000 C   0  0  0  0  0  0  0  0  0  0  0  0
    1.7849   -5.4933    0.0000 C   0  0  0  0  0  0  0  0  0  0  0  0
    2.7886   -4.3786    0.0000 O   0  0  0  0  0  0  0  0  0  0  0  0
    2.2484   -6.9199    0.0000 N   0  0  0  0  0  0  0  0  0  0  0  0
    3.7156   -7.2317    0.0000 C   0  0  0  0  0  0  0  0  0  0  0  0
    4.7193   -6.1170    0.0000 C   0  0  0  0  0  0  0  0  0  0  0  0
    6.1865   -6.4289    0.0000 C   0  0  0  0  0  0  0  0  0  0  0  0
    7.1902   -5.3142    0.0000 C   0  0  0  0  0  0  0  0  0  0  0  0
    6.6501   -7.8555    0.0000 C   0  0  0  0  0  0  0  0  0  0  0  0
    4.1791   -8.6583    0.0000 C   0  0  0  0  0  0  0  0  0  0  0  0
    5.6464   -8.9702    0.0000 O   0  0  0  0  0  0  0  0  0  0  0  0
    3.1755   -9.7730    0.0000 N   0  0  0  0  0  0  0  0  0  0  0  0
    1.6837   -9.6162    0.0000 C   0  0  0  0  0  0  0  0  0  0  0  0
    1.0736  -10.9866    0.0000 C   0  0  0  0  0  0  0  0  0  0  0  0
    2.1883  -11.9903    0.0000 C   0  0  0  0  0  0  0  0  0  0  0  0
    3.4873  -11.2403    0.0000 C   0  0  0  0  0  0  0  0  0  0  0  0
    4.8576  -11.8504    0.0000 C   0  0  0  0  0  0  0  0  0  0  0  0
    6.0712  -10.9687    0.0000 O   0  0  0  0  0  0  0  0  0  0  0  0
    5.0144  -13.3421    0.0000 N   0  0  0  0  0  0  0  0  0  0  0  0
    6.3847  -13.9522    0.0000 C   0  0  0  0  0  0  0  0  0  0  0  0
    6.5415  -15.4440    0.0000 C   0  0  0  0  0  0  0  0  0  0  0  0
    7.9119  -16.0541    0.0000 C   0  0  0  0  0  0  0  0  0  0  0  0
    9.2822  -16.6642    0.0000 C   0  0  0  0  0  0  0  0  0  0  0  0
    7.5983  -13.0706    0.0000 C   0  0  0  0  0  0  0  0  0  0  0  0
    7.4415  -11.5788    0.0000 O   0  0  0  0  0  0  0  0  0  0  0  0
    8.9686  -13.6807    0.0000 O   0  0  0  0  0  0  0  0  0  0  0  0
  1  2  1  0
  1  3  1  0
  3  4  1  6
  4  5  1  0
  5  6  1  0
  5  7  1  0
  3  8  1  0
  8  9  2  0
  8 10  1  0
 10 11  1  0
 11 12  1  6
 12 13  1  0
 13 14  1  0
 13 15  1  0
 11 16  1  0
 16 17  2  0
 16 18  1  0
 18 19  1  0
 19 20  1  0
 20 21  1  0
 21 22  1  0
 22 23  1  6
 23 24  2  0
 23 25  1  0
 25 26  1  0
 26 27  1  1
 27 28  1  0
 28 29  1  0
 28 30  1  0
 26 31  1  0
 31 32  2  0
 31 33  1  0
 33 34  1  0
 34 35  1  1
 35 36  1  0
 36 37  1  0
 36 38  1  0
 34 39  1  0
 39 40  2  0
 39 41  1  0
 41 42  1  0
 42 43  1  0
 43 44  1  0
 44 45  1  0
 45 46  1  6
 46 47  2  0
 46 48  1  0
 48 49  1  0
 49 50  1  6
 50 51  1  0
 51 52  3  0
 49 53  1  0
 53 54  2  0
 53 55  1  0
 22 18  1  0
 45 41  1  0
M  END
$$$$

     RDKit          2D

 55 56  0  0  0  0  0  0  0  0999 V2000
    8.0260    1.2990    0.0000 N   0  0  0  0  0  0  0  0  0  0  0  0
    7.2760    0.0000    0.0000 C   0  0  0  0  0  0  0  0  0  0  0  0
    8.0260   -1.2990    0.0000 C   0  0  0  0  0  0  0  0  0  0  0  0
    9.5260   -1.2990    0.0000 C   0  0  0  0  0  0  0  0  0  0  0  0
   10.2760   -2.5981    0.0000 C   0  0  0  0  0  0  0  0  0  0  0  0
   10.2760    0.0000    0.0000 C   0  0  0  0  0  0  0  0  0  0  0  0
    5.7760    0.0000    0.0000 C   0  0  0  0  0  0  0  0  0  0  0  0
    5.0260   -1.2990    0.0000 O   0  0  0  0  0  0  0  0  0  0  0  0
    5.0260    1.2990    0.0000 N   0  0  0  0  0  0  0  0  0  0  0  0
    5.7760    2.5981    0.0000 C   0  0  0  0  0  0  0  0  0  0  0  0
    3.5260    1.2990    0.0000 C   0  0  0  0  0  0  0  0  0  0  0  0
    2.7760    2.5981    0.0000 C   0  0  0  0  0  0  0  0  0  0  0  0
    3.5260    3.8971    0.0000 C   0  0  0  0  0  0  0  0  0  0  0  0
    2.7760    5.1962    0.0000 C   0  0  0  0  0  0  0  0  0  0  0  0
    5.0260    3.8971    0.0000 C   0  0  0  0  0  0  0  0  0  0  0  0
    2.7760    0.0000    0.0000 C   0  0  0  0  0  0  0  0  0  0  0  0
    3.5260   -1.2990    0.0000 O   0  0  0  0  0  0  0  0  0  0  0  0
    1.2760    0.0000    0.0000 N   0  0  0  0  0  0  0  0  0  0  0  0
    0.3943    1.2135    0.0000 C   0  0  0  0  0  0  0  0  0  0  0  0
   -1.0323    0.7500    0.0000 C   0  0  0  0  0  0  0  0  0  0  0  0
   -1.0323   -0.7500    0.0000 C   0  0  0  0  0  0  0  0  0  0  0  0
    0.3943   -1.2135    0.0000 C   0  0  0  0  0  0  0  0  0  0  0  0
    0.8578   -2.6401    0.0000 C   0  0  0  0  0  0  0  0  0  0  0  0
    2.3250   -2.9520    0.0000 O   0  0  0  0  0  0  0  0  0  0  0  0
   -0.1459   -3.7548    0.0000 N   0  0  0  0  0  0  0  0  0  0  0  0
    0.3177   -5.1814    0.0000 C   0  0  0  0  0  0  0  0  0  0  0  0
   -0.6860   -6.2961    0.0000 C   0  0  0  0  0  0  0  0  0  0  0  0
   -0.2225   -7.7227    0.0000 C   0  0  0  0  0  0  0  0  0  0  0  0
   -1.2262   -8.8374    0.0000 C   0  0  0  0  0  0  0  0  0  0  0  0
    1.2447   -8.0346    0.0000 C   0  0  0  0  0  0  0  0  0  0  0  0
    1.7849   -5.4933    0.0000 C   0  0  0  0  0  0  0  0  0  0  0  0
    2.7886   -4.3786    0.0000 O   0  0  0  0  0  0  0  0  0  0  0  0
    2.2484   -6.9199    0.0000 N   0  0  0  0  0  0  0  0  0  0  0  0
    3.7156   -7.2317    0.0000 C   0  0  0  0  0  0  0  0  0  0  0  0
    4.1791   -8.6583    0.0000 C   0  0  0  0  0  0  0  0  0  0  0  0
    3.1755   -9.7730    0.0000 C   0  0  0  0  0  0  0  0  0  0  0  0
    3.6390  -11.1996    0.0000 C   0  0  0  0  0  0  0  0  0  0  0  0
    1.7082   -9.4612    0.0000 C   0  0  0  0  0  0  0  0  0  0  0  0
    4.7193   -6.1170    0.0000 C   0  0  0  0  0  0  0  0  0  0  0  0
    4.2558   -4.6904    0.0000 O   0  0  0  0  0  0  0  0  0  0  0  0
    6.1865   -6.4289    0.0000 N   0  0  0  0  0  0  0  0  0  0  0  0
    7.3013   -5.4252    0.0000 C   0  0  0  0  0  0  0  0  0  0  0  0
    8.6003   -6.1752    0.0000 C   0  0  0  0  0  0  0  0  0  0  0  0
    8.2884   -7.6424    0.0000 C   0  0  0  0  0  0  0  0  0  0  0  0
    6.7966   -7.7992    0.0000 C   0  0  0  0  0  0  0  0  0  0  0  0
    6.0466   -9.0982    0.0000 C   0  0  0  0  0  0  0  0  0  0  0  0
    4.5912   -9.4612    0.0000 O   0  0  0  0  0  0  0  0  0  0  0  0
    6.7966  -10.3973    0.0000 N   0  0  0  0  0  0  0  0  0  0  0  0
    6.0466  -11.6963    0.0000 C   0  0  0  0  0  0  0  0  0  0  0  0
    6.7966  -12.9954    0.0000 C   0  0  0  0  0  0  0  0  0  0  0  0
    6.0466  -14.2944    0.0000 C   0  0  0  0  0  0  0  0  0  0  0  0
    5.2966  -15.5934    0.0000 C   0  0  0  0  0  0  0  0  0  0  0  0
    4.5466  -11.6963    0.0000 C   0  0  0  0  0  0  0  0  0  0  0  0
    3.7966  -10.3973    0.0000 O   0  0  0  0  0  0  0  0  0  0  0  0
    3.7966  -12.9954    0.0000 O   0  0  0  0  0  0  0  0  0  0  0  0
  2  1  1  1
  2  3  1  0
  3  4  1  0
  4  5  1  0
  4  6  1  0
  2  7  1  0
  7  8  2  0
  7  9  1  0
  9 10  1  0
  9 11  1  0
 11 12  1  6
 12 13  1  0
 13 14  1  0
 13 15  1  0
 11 16  1  0
 16 17  2  0
 16 18  1  0
 18 19  1  0
 19 20  1  0
 20 21  1  0
 21 22  1  0
 22 23  1  6
 23 24  2  0
 23 25  1  0
 25 26  1  0
 26 27  1  1
 27 28  1  0
 28 29  1  0
 28 30  1  0
 26 31  1  0
 31 32  2  0
 31 33  1  0
 33 34  1  0
 34 35  1  6
 35 36  1  0
 36 37  1  0
 36 38  1  0
 34 39  1  0
 39 40  2  0
 39 41  1  0
 41 42  1  0
 42 43  1  0
 43 44  1  0
 44 45  1  0
 45 46  1  1
 46 47  2  0
 46 48  1  0
 48 49  1  0
 49 50  1  1
 50 51  1  0
 51 52  3  0
 49 53  1  0
 53 54  2  0
 53 55  1  0
 22 18  1  0
 45 41  1  0
M  END
$$$$

     RDKit          2D

 55 56  0  0  0  0  0  0  0  0999 V2000
    8.0260    1.2990    0.0000 N   0  0  0  0  0  0  0  0  0  0  0  0
    7.2760    0.0000    0.0000 C   0  0  0  0  0  0  0  0  0  0  0  0
    8.0260   -1.2990    0.0000 C   0  0  0  0  0  0  0  0  0  0  0  0
    9.5260   -1.2990    0.0000 C   0  0  0  0  0  0  0  0  0  0  0  0
   10.2760   -2.5981    0.0000 C   0  0  0  0  0  0  0  0  0  0  0  0
   10.2760    0.0000    0.0000 C   0  0  0  0  0  0  0  0  0  0  0  0
    5.7760    0.0000    0.0000 C   0  0  0  0  0  0  0  0  0  0  0  0
    5.0260   -1.2990    0.0000 O   0  0  0  0  0  0  0  0  0  0  0  0
    5.0260    1.2990    0.0000 N   0  0  0  0  0  0  0  0  0  0  0  0
    5.7760    2.5981    0.0000 C   0  0  0  0  0  0  0  0  0  0  0  0
    3.5260    1.2990    0.0000 C   0  0  0  0  0  0  0  0  0  0  0  0
    2.7760    2.5981    0.0000 C   0  0  0  0  0  0  0  0  0  0  0  0
    3.5260    3.8971    0.0000 C   0  0  0  0  0  0  0  0  0  0  0  0
    2.7760    5.1962    0.0000 C   0  0  0  0  0  0  0  0  0  0  0  0
    5.0260    3.8971    0.0000 C   0  0  0  0  0  0  0  0  0  0  0  0
    2.7760    0.0000    0.0000 C   0  0  0  0  0  0  0  0  0  0  0  0
    3.5260   -1.2990    0.0000 O   0  0  0  0  0  0  0  0  0  0  0  0
    1.2760    0.0000    0.0000 N   0  0  0  0  0  0  0  0  0  0  0  0
    0.3943    1.2135    0.0000 C   0  0  0  0  0  0  0  0  0  0  0  0
   -1.0323    0.7500    0.0000 C   0  0  0  0  0  0  0  0  0  0  0  0
   -1.0323   -0.7500    0.0000 C   0  0  0  0  0  0  0  0  0  0  0  0
    0.3943   -1.2135    0.0000 C   0  0  0  0  0  0  0  0  0  0  0  0
    0.8578   -2.6401    0.0000 C   0  0  0  0  0  0  0  0  0  0  0  0
    2.3250   -2.9520    0.0000 O   0  0  0  0  0  0  0  0  0  0  0  0
   -0.1459   -3.7548    0.0000 N   0  0  0  0  0  0  0  0  0  0  0  0
    0.3177   -5.1814    0.0000 C   0  0  0  0  0  0  0  0  0  0  0  0
   -0.6860   -6.2961    0.0000 C   0  0  0  0  0  0  0  0  0  0  0  0
   -0.2225   -7.7227    0.0000 C   0  0  0  0  0  0  0  0  0  0  0  0
   -1.2262   -8.8374    0.0000 C   0  0  0  0  0  0  0  0  0  0  0  0
    1.2447   -8.0346    0.0000 C   0  0  0  0  0  0  0  0  0  0  0  0
    1.7849   -5.4933    0.0000 C   0  0  0  0  0  0  0  0  0  0  0  0
    2.7886   -4.3786    0.0000 O   0  0  0  0  0  0  0  0  0  0  0  0
    2.2484   -6.9199    0.0000 N   0  0  0  0  0  0  0  0  0  0  0  0
    3.7156   -7.2317    0.0000 C   0  0  0  0  0  0  0  0  0  0  0  0
    4.1791   -8.6583    0.0000 C   0  0  0  0  0  0  0  0  0  0  0  0
    3.1755   -9.7730    0.0000 C   0  0  0  0  0  0  0  0  0  0  0  0
    3.6390  -11.1996    0.0000 C   0  0  0  0  0  0  0  0  0  0  0  0
    1.7082   -9.4612    0.0000 C   0  0  0  0  0  0  0  0  0  0  0  0
    4.7193   -6.1170    0.0000 C   0  0  0  0  0  0  0  0  0  0  0  0
    4.2558   -4.6904    0.0000 O   0  0  0  0  0  0  0  0  0  0  0  0
    6.1865   -6.4289    0.0000 N   0  0  0  0  0  0  0  0  0  0  0  0
    7.3013   -5.4252    0.0000 C   0  0  0  0  0  0  0  0  0  0  0  0
    8.6003   -6.1752    0.0000 C   0  0  0  0  0  0  0  0  0  0  0  0
    8.2884   -7.6424    0.0000 C   0  0  0  0  0  0  0  0  0  0  0  0
    6.7966   -7.7992    0.0000 C   0  0  0  0  0  0  0  0  0  0  0  0
    6.0466   -9.0982    0.0000 C   0  0  0  0  0  0  0  0  0  0  0  0
    4.5912   -9.4612    0.0000 O   0  0  0  0  0  0  0  0  0  0  0  0
    6.7966  -10.3973    0.0000 N   0  0  0  0  0  0  0  0  0  0  0  0
    6.0466  -11.6963    0.0000 C   0  0  0  0  0  0  0  0  0  0  0  0
    6.7966  -12.9954    0.0000 C   0  0  0  0  0  0  0  0  0  0  0  0
    6.0466  -14.2944    0.0000 C   0  0  0  0  0  0  0  0  0  0  0  0
    5.2966  -15.5934    0.0000 C   0  0  0  0  0  0  0  0  0  0  0  0
    4.5466  -11.6963    0.0000 C   0  0  0  0  0  0  0  0  0  0  0  0
    3.7966  -10.3973    0.0000 O   0  0  0  0  0  0  0  0  0  0  0  0
    3.7966  -12.9954    0.0000 O   0  0  0  0  0  0  0  0  0  0  0  0
  2  1  1  6
  2  3  1  0
  3  4  1  0
  4  5  1  0
  4  6  1  0
  2  7  1  0
  7  8  2  0
  7  9  1  0
  9 10  1  0
  9 11  1  0
 11 12  1  6
 12 13  1  0
 13 14  1  0
 13 15  1  0
 11 16  1  0
 16 17  2  0
 16 18  1  0
 18 19  1  0
 19 20  1  0
 20 21  1  0
 21 22  1  0
 22 23  1  6
 23 24  2  0
 23 25  1  0
 25 26  1  0
 26 27  1  1
 27 28  1  0
 28 29  1  0
 28 30  1  0
 26 31  1  0
 31 32  2  0
 31 33  1  0
 33 34  1  0
 34 35  1  6
 35 36  1  0
 36 37  1  0
 36 38  1  0
 34 39  1  0
 39 40  2  0
 39 41  1  0
 41 42  1  0
 42 43  1  0
 43 44  1  0
 44 45  1  0
 45 46  1  1
 46 47  2  0
 46 48  1  0
 48 49  1  0
 49 50  1  1
 50 51  1  0
 51 52  3  0
 49 53  1  0
 53 54  2  0
 53 55  1  0
 22 18  1  0
 45 41  1  0
M  END
$$$$

     RDKit          2D

 40 40  0  0  0  0  0  0  0  0999 V2000
   -1.7240    5.1962    0.0000 N   0  0  0  0  0  0  0  0  0  0  0  0
   -0.9740    3.8971    0.0000 C   0  0  0  0  0  0  0  0  0  0  0  0
   -1.7240    2.5981    0.0000 C   0  0  0  0  0  0  0  0  0  0  0  0
   -3.2240    2.5981    0.0000 C   0  0  0  0  0  0  0  0  0  0  0  0
   -3.9740    1.2990    0.0000 C   0  0  0  0  0  0  0  0  0  0  0  0
   -3.9740    3.8971    0.0000 C   0  0  0  0  0  0  0  0  0  0  0  0
    0.5260    3.8971    0.0000 C   0  0  0  0  0  0  0  0  0  0  0  0
    1.2760    2.5981    0.0000 O   0  0  0  0  0  0  0  0  0  0  0  0
    1.2760    5.1962    0.0000 N   0  0  0  0  0  0  0  0  0  0  0  0
    0.5260    6.4952    0.0000 C   0  0  0  0  0  0  0  0  0  0  0  0
    2.7760    5.1962    0.0000 C   0  0  0  0  0  0  0  0  0  0  0  0
    3.5260    6.4952    0.0000 C   0  0  0  0  0  0  0  0  0  0  0  0
    2.7760    7.7942    0.0000 C   0  0  0  0  0  0  0  0  0  0  0  0
    3.5260    9.0933    0.0000 C   0  0  0  0  0  0  0  0  0  0  0  0
    1.2760    7.7942    0.0000 C   0  0  0  0  0  0  0  0  0  0  0  0
    3.5260    3.8971    0.0000 C   0  0  0  0  0  0  0  0  0  0  0  0
    5.0260    3.8971    0.0000 O   0  0  0  0  0  0  0  0  0  0  0  0
    2.7760    2.5981    0.0000 N   0  0  0  0  0  0  0  0  0  0  0  0
    3.5260    1.2990    0.0000 C   0  0  0  0  0  0  0  0  0  0  0  0
    5.0260    1.2990    0.0000 C   0  0  0  0  0  0  0  0  0  0  0  0
    5.7760    0.0000    0.0000 C   0  0  0  0  0  0  0  0  0  0  0  0
    7.2760    0.0000    0.0000 C   0  0  0  0  0  0  0  0  0  0  0  0
    5.0260   -1.2990    0.0000 C   0  0  0  0  0  0  0  0  0  0  0  0
    2.7760    0.0000    0.0000 C   0  0  0  0  0  0  0  0  0  0  0  0
    3.5260   -1.2990    0.0000 O   0  0  0  0  0  0  0  0  0  0  0  0
    1.2760    0.0000    0.0000 N   0  0  0  0  0  0  0  0  0  0  0  0
    0.3943    1.2135    0.0000 C   0  0  0  0  0  0  0  0  0  0  0  0
   -1.0323    0.7500    0.0000 C   0  0  0  0  0  0  0  0  0  0  0  0
   -1.0323   -0.7500    0.0000 C   0  0  0  0  0  0  0  0  0  0  0  0
    0.3943   -1.2135    0.0000 C   0  0  0  0  0  0  0  0  0  0  0  0
    0.8578   -2.6401    0.0000 C   0  0  0  0  0  0  0  0  0  0  0  0
    2.3250   -2.9520    0.0000 O   0  0  0  0  0  0  0  0  0  0  0  0
   -0.1459   -3.7548    0.0000 N   0  0  0  0  0  0  0  0  0  0  0  0
    0.3177   -5.1814    0.0000 C   0  0  0  0  0  0  0  0  0  0  0  0
   -0.6860   -6.2961    0.0000 C   0  0  0  0  0  0  0  0  0  0  0  0
   -0.2225   -7.7227    0.0000 C   0  0  0  0  0  0  0  0  0  0  0  0
    0.2410   -9.1493    0.0000 C   0  0  0  0  0  0  0  0  0  0  0  0
    1.7849   -5.4933    0.0000 C   0  0  0  0  0  0  0  0  0  0  0  0
    2.7886   -4.3786    0.0000 O   0  0  0  0  0  0  0  0  0  0  0  0
    2.2484   -6.9199    0.0000 O   0  0  0  0  0  0  0  0  0  0  0  0
  2  1  1  6
  2  3  1  0
  3  4  1  0
  4  5  1  0
  4  6  1  0
  2  7  1  0
  7  8  2  0
  7  9  1  0
  9 10  1  0
  9 11  1  0
 11 12  1  1
 12 13  1  0
 13 14  1  0
 13 15  1  0
 11 16  1  0
 16 17  2  0
 16 18  1  0
 18 19  1  0
 19 20  1  1
 20 21  1  0
 21 22  1  0
 21 23  1  0
 19 24  1  0
 24 25  2  0
 24 26  1  0
 26 27  1  0
 27 28  1  0
 28 29  1  0
 29 30  1  0
 30 31  1  6
 31 32  2  0
 31 33  1  0
 33 34  1  0
 34 35  1  6
 35 36  1  0
 36 37  3  0
 34 38  1  0
 38 39  2  0
 38 40  1  0
 30 26  1  0
M  END
$$$$

     RDKit          2D

 40 40  0  0  0  0  0  0  0  0999 V2000
   -1.7240    5.1962    0.0000 N   0  0  0  0  0  0  0  0  0  0  0  0
   -0.9740    3.8971    0.0000 C   0  0  0  0  0  0  0  0  0  0  0  0
   -1.7240    2.5981    0.0000 C   0  0  0  0  0  0  0  0  0  0  0  0
   -3.2240    2.5981    0.0000 C   0  0  0  0  0  0  0  0  0  0  0  0
   -3.9740    1.2990    0.0000 C   0  0  0  0  0  0  0  0  0  0  0  0
   -3.9740    3.8971    0.0000 C   0  0  0  0  0  0  0  0  0  0  0  0
    0.5260    3.8971    0.0000 C   0  0  0  0  0  0  0  0  0  0  0  0
    1.2760    2.5981    0.0000 O   0  0  0  0  0  0  0  0  0  0  0  0
    1.2760    5.1962    0.0000 N   0  0  0  0  0  0  0  0  0  0  0  0
    0.5260    6.4952    0.0000 C   0  0  0  0  0  0  0  0  0  0  0  0
    2.7760    5.1962    0.0000 C   0  0  0  0  0  0  0  0  0  0  0  0
    3.5260    6.4952    0.0000 C   0  0  0  0  0  0  0  0  0  0  0  0
    2.7760    7.7942    0.0000 C   0  0  0  0  0  0  0  0  0  0  0  0
    3.5260    9.0933    0.0000 C   0  0  0  0  0  0  0  0  0  0  0  0
    1.2760    7.7942    0.0000 C   0  0  0  0  0  0  0  0  0  0  0  0
    3.5260    3.8971    0.0000 C   0  0  0  0  0  0  0  0  0  0  0  0
    5.0260    3.8971    0.0000 O   0  0  0  0  0  0  0  0  0  0  0  0
    2.7760    2.5981    0.0000 N   0  0  0  0  0  0  0  0  0  0  0  0
    3.5260    1.2990    0.0000 C   0  0  0  0  0  0  0  0  0  0  0  0
    5.0260    1.2990    0.0000 C   0  0  0  0  0  0  0  0  0  0  0  0
    5.7760    0.0000    0.0000 C   0  0  0  0  0  0  0  0  0  0  0  0
    7.2760    0.0000    0.0000 C   0  0  0  0  0  0  0  0  0  0  0  0
    5.0260   -1.2990    0.0000 C   0  0  0  0  0  0  0  0  0  0  0  0
    2.7760    0.0000    0.0000 C   0  0  0  0  0  0  0  0  0  0  0  0
    3.5260   -1.2990    0.0000 O   0  0  0  0  0  0  0  0  0  0  0  0
    1.2760    0.0000    0.0000 N   0  0  0  0  0  0  0  0  0  0  0  0
    0.3943    1.2135    0.0000 C   0  0  0  0  0  0  0  0  0  0  0  0
   -1.0323    0.7500    0.0000 C   0  0  0  0  0  0  0  0  0  0  0  0
   -1.0323   -0.7500    0.0000 C   0  0  0  0  0  0  0  0  0  0  0  0
    0.3943   -1.2135    0.0000 C   0  0  0  0  0  0  0  0  0  0  0  0
    0.8578   -2.6401    0.0000 C   0  0  0  0  0  0  0  0  0  0  0  0
    2.3250   -2.9520    0.0000 O   0  0  0  0  0  0  0  0  0  0  0  0
   -0.1459   -3.7548    0.0000 N   0  0  0  0  0  0  0  0  0  0  0  0
    0.3177   -5.1814    0.0000 C   0  0  0  0  0  0  0  0  0  0  0  0
   -0.6860   -6.2961    0.0000 C   0  0  0  0  0  0  0  0  0  0  0  0
   -0.2225   -7.7227    0.0000 C   0  0  0  0  0  0  0  0  0  0  0  0
    0.2410   -9.1493    0.0000 C   0  0  0  0  0  0  0  0  0  0  0  0
    1.7849   -5.4933    0.0000 C   0  0  0  0  0  0  0  0  0  0  0  0
    2.7886   -4.3786    0.0000 O   0  0  0  0  0  0  0  0  0  0  0  0
    2.2484   -6.9199    0.0000 O   0  0  0  0  0  0  0  0  0  0  0  0
  2  1  1  1
  2  3  1  0
  3  4  1  0
  4  5  1  0
  4  6  1  0
  2  7  1  0
  7  8  2  0
  7  9  1  0
  9 10  1  0
  9 11  1  0
 11 12  1  1
 12 13  1  0
 13 14  1  0
 13 15  1  0
 11 16  1  0
 16 17  2  0
 16 18  1  0
 18 19  1  0
 19 20  1  1
 20 21  1  0
 21 22  1  0
 21 23  1  0
 19 24  1  0
 24 25  2  0
 24 26  1  0
 26 27  1  0
 27 28  1  0
 28 29  1  0
 29 30  1  0
 30 31  1  6
 31 32  2  0
 31 33  1  0
 33 34  1  0
 34 35  1  6
 35 36  1  0
 36 37  3  0
 34 38  1  0
 38 39  2  0
 38 40  1  0
 30 26  1  0
M  END
$$$$

     RDKit          2D

 39 39  0  0  0  0  0  0  0  0999 V2000
    5.0260    9.0933    0.0000 N   0  0  0  0  0  0  0  0  0  0  0  0
    5.7760    7.7942    0.0000 C   0  0  0  0  0  0  0  0  0  0  0  0
    7.2760    7.7942    0.0000 C   0  0  0  0  0  0  0  0  0  0  0  0
    8.0260    9.0933    0.0000 C   0  0  0  0  0  0  0  0  0  0  0  0
    8.0260    6.4952    0.0000 C   0  0  0  0  0  0  0  0  0  0  0  0
    5.0260    6.4952    0.0000 C   0  0  0  0  0  0  0  0  0  0  0  0
    5.7760    5.1962    0.0000 O   0  0  0  0  0  0  0  0  0  0  0  0
    3.5260    6.4952    0.0000 N   0  0  0  0  0  0  0  0  0  0  0  0
    2.7760    7.7942    0.0000 C   0  0  0  0  0  0  0  0  0  0  0  0
    2.7760    5.1962    0.0000 C   0  0  0  0  0  0  0  0  0  0  0  0
    1.2760    5.1962    0.0000 C   0  0  0  0  0  0  0  0  0  0  0  0
    0.5260    6.4952    0.0000 C   0  0  0  0  0  0  0  0  0  0  0  0
   -0.9740    6.4952    0.0000 C   0  0  0  0  0  0  0  0  0  0  0  0
    1.2760    7.7942    0.0000 C   0  0  0  0  0  0  0  0  0  0  0  0
    3.5260    3.8971    0.0000 C   0  0  0  0  0  0  0  0  0  0  0  0
    5.0260    3.8971    0.0000 O   0  0  0  0  0  0  0  0  0  0  0  0
    2.7760    2.5981    0.0000 N   0  0  0  0  0  0  0  0  0  0  0  0
    3.5260    1.2990    0.0000 C   0  0  0  0  0  0  0  0  0  0  0  0
    5.0260    1.2990    0.0000 C   0  0  0  0  0  0  0  0  0  0  0  0
    5.7760    0.0000    0.0000 C   0  0  0  0  0  0  0  0  0  0  0  0
    7.2760    0.0000    0.0000 C   0  0  0  0  0  0  0  0  0  0  0  0
    5.0260   -1.2990    0.0000 C   0  0  0  0  0  0  0  0  0  0  0  0
    2.7760   -0.0000    0.0000 C   0  0  0  0  0  0  0  0  0  0  0  0
    3.5260   -1.2990    0.0000 O   0  0  0  0  0  0  0  0  0  0  0  0
    1.2760   -0.0000    0.0000 N   0  0  0  0  0  0  0  0  0  0  0  0
    0.3943    1.2135    0.0000 C   0  0  0  0  0  0  0  0  0  0  0  0
   -1.0323    0.7500    0.0000 C   0  0  0  0  0  0  0  0  0  0  0  0
   -1.0323   -0.7500    0.0000 C   0  0  0  0  0  0  0  0  0  0  0  0
    0.3943   -1.2135    0.0000 C   0  0  0  0  0  0  0  0  0  0  0  0
    0.8578   -2.6401    0.0000 C   0  0  0  0  0  0  0  0  0  0  0  0
    2.3250   -2.9520    0.0000 O   0  0  0  0  0  0  0  0  0  0  0  0
   -0.1459   -3.7548    0.0000 N   0  0  0  0  0  0  0  0  0  0  0  0
    0.3177   -5.1814    0.0000 C   0  0  0  0  0  0  0  0  0  0  0  0
   -0.6860   -6.2961    0.0000 C   0  0  0  0  0  0  0  0  0  0  0  0
   -0.2225   -7.7227    0.0000 C   0  0  0  0  0  0  0  0  0  0  0  0
    0.2410   -9.1493    0.0000 C   0  0  0  0  0  0  0  0  0  0  0  0
    1.7849   -5.4933    0.0000 C   0  0  0  0  0  0  0  0  0  0  0  0
    2.7886   -4.3786    0.0000 O   0  0  0  0  0  0  0  0  0  0  0  0
    2.2484   -6.9199    0.0000 O   0  0  0  0  0  0  0  0  0  0  0  0
  2  1  1  1
  2  3  1  0
  3  4  1  0
  3  5  1  0
  2  6  1  0
  6  7  2  0
  6  8  1  0
  8  9  1  0
  8 10  1  0
 10 11  1  6
 11 12  1  0
 12 13  1  0
 12 14  1  0
 10 15  1  0
 15 16  2  0
 15 17  1  0
 17 18  1  0
 18 19  1  1
 19 20  1  0
 20 21  1  0
 20 22  1  0
 18 23  1  0
 23 24  2  0
 23 25  1  0
 25 26  1  0
 26 27  1  0
 27 28  1  0
 28 29  1  0
 29 30  1  6
 30 31  2  0
 30 32  1  0
 32 33  1  0
 33 34  1  6
 34 35  1  0
 35 36  3  0
 33 37  1  0
 37 38  2  0
 37 39  1  0
 29 25  1  0
M  END
$$$$

     RDKit          2D

 39 39  0  0  0  0  0  0  0  0999 V2000
    5.0260    9.0933    0.0000 N   0  0  0  0  0  0  0  0  0  0  0  0
    5.7760    7.7942    0.0000 C   0  0  0  0  0  0  0  0  0  0  0  0
    7.2760    7.7942    0.0000 C   0  0  0  0  0  0  0  0  0  0  0  0
    8.0260    9.0933    0.0000 C   0  0  0  0  0  0  0  0  0  0  0  0
    8.0260    6.4952    0.0000 C   0  0  0  0  0  0  0  0  0  0  0  0
    5.0260    6.4952    0.0000 C   0  0  0  0  0  0  0  0  0  0  0  0
    5.7760    5.1962    0.0000 O   0  0  0  0  0  0  0  0  0  0  0  0
    3.5260    6.4952    0.0000 N   0  0  0  0  0  0  0  0  0  0  0  0
    2.7760    7.7942    0.0000 C   0  0  0  0  0  0  0  0  0  0  0  0
    2.7760    5.1962    0.0000 C   0  0  0  0  0  0  0  0  0  0  0  0
    1.2760    5.1962    0.0000 C   0  0  0  0  0  0  0  0  0  0  0  0
    0.5260    6.4952    0.0000 C   0  0  0  0  0  0  0  0  0  0  0  0
   -0.9740    6.4952    0.0000 C   0  0  0  0  0  0  0  0  0  0  0  0
    1.2760    7.7942    0.0000 C   0  0  0  0  0  0  0  0  0  0  0  0
    3.5260    3.8971    0.0000 C   0  0  0  0  0  0  0  0  0  0  0  0
    5.0260    3.8971    0.0000 O   0  0  0  0  0  0  0  0  0  0  0  0
    2.7760    2.5981    0.0000 N   0  0  0  0  0  0  0  0  0  0  0  0
    3.5260    1.2990    0.0000 C   0  0  0  0  0  0  0  0  0  0  0  0
    5.0260    1.2990    0.0000 C   0  0  0  0  0  0  0  0  0  0  0  0
    5.7760    0.0000    0.0000 C   0  0  0  0  0  0  0  0  0  0  0  0
    7.2760    0.0000    0.0000 C   0  0  0  0  0  0  0  0  0  0  0  0
    5.0260   -1.2990    0.0000 C   0  0  0  0  0  0  0  0  0  0  0  0
    2.7760   -0.0000    0.0000 C   0  0  0  0  0  0  0  0  0  0  0  0
    3.5260   -1.2990    0.0000 O   0  0  0  0  0  0  0  0  0  0  0  0
    1.2760   -0.0000    0.0000 N   0  0  0  0  0  0  0  0  0  0  0  0
    0.3943    1.2135    0.0000 C   0  0  0  0  0  0  0  0  0  0  0  0
   -1.0323    0.7500    0.0000 C   0  0  0  0  0  0  0  0  0  0  0  0
   -1.0323   -0.7500    0.0000 C   0  0  0  0  0  0  0  0  0  0  0  0
    0.3943   -1.2135    0.0000 C   0  0  0  0  0  0  0  0  0  0  0  0
    0.8578   -2.6401    0.0000 C   0  0  0  0  0  0  0  0  0  0  0  0
    2.3250   -2.9520    0.0000 O   0  0  0  0  0  0  0  0  0  0  0  0
   -0.1459   -3.7548    0.0000 N   0  0  0  0  0  0  0  0  0  0  0  0
    0.3177   -5.1814    0.0000 C   0  0  0  0  0  0  0  0  0  0  0  0
   -0.6860   -6.2961    0.0000 C   0  0  0  0  0  0  0  0  0  0  0  0
   -0.2225   -7.7227    0.0000 C   0  0  0  0  0  0  0  0  0  0  0  0
    0.2410   -9.1493    0.0000 C   0  0  0  0  0  0  0  0  0  0  0  0
    1.7849   -5.4933    0.0000 C   0  0  0  0  0  0  0  0  0  0  0  0
    2.7886   -4.3786    0.0000 O   0  0  0  0  0  0  0  0  0  0  0  0
    2.2484   -6.9199    0.0000 O   0  0  0  0  0  0  0  0  0  0  0  0
  2  1  1  6
  2  3  1  0
  3  4  1  0
  3  5  1  0
  2  6  1  0
  6  7  2  0
  6  8  1  0
  8  9  1  0
  8 10  1  0
 10 11  1  6
 11 12  1  0
 12 13  1  0
 12 14  1  0
 10 15  1  0
 15 16  2  0
 15 17  1  0
 17 18  1  0
 18 19  1  1
 19 20  1  0
 20 21  1  0
 20 22  1  0
 18 23  1  0
 23 24  2  0
 23 25  1  0
 25 26  1  0
 26 27  1  0
 27 28  1  0
 28 29  1  0
 29 30  1  6
 30 31  2  0
 30 32  1  0
 32 33  1  0
 33 34  1  6
 34 35  1  0
 35 36  3  0
 33 37  1  0
 37 38  2  0
 37 39  1  0
 29 25  1  0
M  END
$$$$

     RDKit          2D

 41 41  0  0  0  0  0  0  0  0999 V2000
   -1.7240    5.1962    0.0000 N   0  0  0  0  0  0  0  0  0  0  0  0
   -3.2240    5.1962    0.0000 C   0  0  0  0  0  0  0  0  0  0  0  0
   -0.9740    3.8971    0.0000 C   0  0  0  0  0  0  0  0  0  0  0  0
   -1.7240    2.5981    0.0000 C   0  0  0  0  0  0  0  0  0  0  0  0
   -3.2240    2.5981    0.0000 C   0  0  0  0  0  0  0  0  0  0  0  0
   -3.9740    1.2990    0.0000 C   0  0  0  0  0  0  0  0  0  0  0  0
   -3.9740    3.8971    0.0000 C   0  0  0  0  0  0  0  0  0  0  0  0
    0.5260    3.8971    0.0000 C   0  0  0  0  0  0  0  0  0  0  0  0
    1.2760    2.5981    0.0000 O   0  0  0  0  0  0  0  0  0  0  0  0
    1.2760    5.1962    0.0000 N   0  0  0  0  0  0  0  0  0  0  0  0
    0.5260    6.4952    0.0000 C   0  0  0  0  0  0  0  0  0  0  0  0
    2.7760    5.1962    0.0000 C   0  0  0  0  0  0  0  0  0  0  0  0
    3.5260    6.4952    0.0000 C   0  0  0  0  0  0  0  0  0  0  0  0
    2.7760    7.7942    0.0000 C   0  0  0  0  0  0  0  0  0  0  0  0
    3.5260    9.0933    0.0000 C   0  0  0  0  0  0  0  0  0  0  0  0
    1.2760    7.7942    0.0000 C   0  0  0  0  0  0  0  0  0  0  0  0
    3.5260    3.8971    0.0000 C   0  0  0  0  0  0  0  0  0  0  0  0
    5.0260    3.8971    0.0000 O   0  0  0  0  0  0  0  0  0  0  0  0
    2.7760    2.5981    0.0000 N   0  0  0  0  0  0  0  0  0  0  0  0
    3.5260    1.2990    0.0000 C   0  0  0  0  0  0  0  0  0  0  0  0
    5.0260    1.2990    0.0000 C   0  0  0  0  0  0  0  0  0  0  0  0
    5.7760    0.0000    0.0000 C   0  0  0  0  0  0  0  0  0  0  0  0
    5.0260   -1.2990    0.0000 C   0  0  0  0  0  0  0  0  0  0  0  0
    7.2760    0.0000    0.0000 C   0  0  0  0  0  0  0  0  0  0  0  0
    2.7760    0.0000    0.0000 C   0  0  0  0  0  0  0  0  0  0  0  0
    3.5260   -1.2990    0.0000 O   0  0  0  0  0  0  0  0  0  0  0  0
    1.2760    0.0000    0.0000 N   0  0  0  0  0  0  0  0  0  0  0  0
    0.3943    1.2135    0.0000 C   0  0  0  0  0  0  0  0  0  0  0  0
   -1.0323    0.7500    0.0000 C   0  0  0  0  0  0  0  0  0  0  0  0
   -1.0323   -0.7500    0.0000 C   0  0  0  0  0  0  0  0  0  0  0  0
    0.3943   -1.2135    0.0000 C   0  0  0  0  0  0  0  0  0  0  0  0
    0.8578   -2.6401    0.0000 C   0  0  0  0  0  0  0  0  0  0  0  0
    2.3250   -2.9520    0.0000 O   0  0  0  0  0  0  0  0  0  0  0  0
   -0.1459   -3.7548    0.0000 N   0  0  0  0  0  0  0  0  0  0  0  0
    0.3177   -5.1814    0.0000 C   0  0  0  0  0  0  0  0  0  0  0  0
   -0.6860   -6.2961    0.0000 C   0  0  0  0  0  0  0  0  0  0  0  0
   -0.2225   -7.7227    0.0000 C   0  0  0  0  0  0  0  0  0  0  0  0
    0.2410   -9.1493    0.0000 C   0  0  0  0  0  0  0  0  0  0  0  0
    1.7849   -5.4933    0.0000 C   0  0  0  0  0  0  0  0  0  0  0  0
    2.7886   -4.3786    0.0000 O   0  0  0  0  0  0  0  0  0  0  0  0
    2.2484   -6.9199    0.0000 O   0  0  0  0  0  0  0  0  0  0  0  0
  1  2  1  0
  1  3  1  0
  3  4  1  6
  4  5  1  0
  5  6  1  0
  5  7  1  0
  3  8  1  0
  8  9  2  0
  8 10  1  0
 10 11  1  0
 10 12  1  0
 12 13  1  1
 13 14  1  0
 14 15  1  0
 14 16  1  0
 12 17  1  0
 17 18  2  0
 17 19  1  0
 19 20  1  0
 20 21  1  1
 21 22  1  0
 22 23  1  0
 22 24  1  0
 20 25  1  0
 25 26  2  0
 25 27  1  0
 27 28  1  0
 28 29  1  0
 29 30  1  0
 30 31  1  0
 31 32  1  6
 32 33  2  0
 32 34  1  0
 34 35  1  0
 35 36  1  6
 36 37  1  0
 37 38  3  0
 35 39  1  0
 39 40  2  0
 39 41  1  0
 31 27  1  0
M  END
$$$$

     RDKit          2D

 41 41  0  0  0  0  0  0  0  0999 V2000
   -1.7240    5.1962    0.0000 N   0  0  0  0  0  0  0  0  0  0  0  0
   -3.2240    5.1962    0.0000 C   0  0  0  0  0  0  0  0  0  0  0  0
   -0.9740    3.8971    0.0000 C   0  0  0  0  0  0  0  0  0  0  0  0
   -1.7240    2.5981    0.0000 C   0  0  0  0  0  0  0  0  0  0  0  0
   -3.2240    2.5981    0.0000 C   0  0  0  0  0  0  0  0  0  0  0  0
   -3.9740    1.2990    0.0000 C   0  0  0  0  0  0  0  0  0  0  0  0
   -3.9740    3.8971    0.0000 C   0  0  0  0  0  0  0  0  0  0  0  0
    0.5260    3.8971    0.0000 C   0  0  0  0  0  0  0  0  0  0  0  0
    1.2760    2.5981    0.0000 O   0  0  0  0  0  0  0  0  0  0  0  0
    1.2760    5.1962    0.0000 N   0  0  0  0  0  0  0  0  0  0  0  0
    0.5260    6.4952    0.0000 C   0  0  0  0  0  0  0  0  0  0  0  0
    2.7760    5.1962    0.0000 C   0  0  0  0  0  0  0  0  0  0  0  0
    3.5260    6.4952    0.0000 C   0  0  0  0  0  0  0  0  0  0  0  0
    2.7760    7.7942    0.0000 C   0  0  0  0  0  0  0  0  0  0  0  0
    3.5260    9.0933    0.0000 C   0  0  0  0  0  0  0  0  0  0  0  0
    1.2760    7.7942    0.0000 C   0  0  0  0  0  0  0  0  0  0  0  0
    3.5260    3.8971    0.0000 C   0  0  0  0  0  0  0  0  0  0  0  0
    5.0260    3.8971    0.0000 O   0  0  0  0  0  0  0  0  0  0  0  0
    2.7760    2.5981    0.0000 N   0  0  0  0  0  0  0  0  0  0  0  0
    3.5260    1.2990    0.0000 C   0  0  0  0  0  0  0  0  0  0  0  0
    5.0260    1.2990    0.0000 C   0  0  0  0  0  0  0  0  0  0  0  0
    5.7760    0.0000    0.0000 C   0  0  0  0  0  0  0  0  0  0  0  0
    5.0260   -1.2990    0.0000 C   0  0  0  0  0  0  0  0  0  0  0  0
    7.2760    0.0000    0.0000 C   0  0  0  0  0  0  0  0  0  0  0  0
    2.7760    0.0000    0.0000 C   0  0  0  0  0  0  0  0  0  0  0  0
    3.5260   -1.2990    0.0000 O   0  0  0  0  0  0  0  0  0  0  0  0
    1.2760    0.0000    0.0000 N   0  0  0  0  0  0  0  0  0  0  0  0
    0.3943    1.2135    0.0000 C   0  0  0  0  0  0  0  0  0  0  0  0
   -1.0323    0.7500    0.0000 C   0  0  0  0  0  0  0  0  0  0  0  0
   -1.0323   -0.7500    0.0000 C   0  0  0  0  0  0  0  0  0  0  0  0
    0.3943   -1.2135    0.0000 C   0  0  0  0  0  0  0  0  0  0  0  0
    0.8578   -2.6401    0.0000 C   0  0  0  0  0  0  0  0  0  0  0  0
    2.3250   -2.9520    0.0000 O   0  0  0  0  0  0  0  0  0  0  0  0
   -0.1459   -3.7548    0.0000 N   0  0  0  0  0  0  0  0  0  0  0  0
    0.3177   -5.1814    0.0000 C   0  0  0  0  0  0  0  0  0  0  0  0
   -0.6860   -6.2961    0.0000 C   0  0  0  0  0  0  0  0  0  0  0  0
   -0.2225   -7.7227    0.0000 C   0  0  0  0  0  0  0  0  0  0  0  0
    0.2410   -9.1493    0.0000 C   0  0  0  0  0  0  0  0  0  0  0  0
    1.7849   -5.4933    0.0000 C   0  0  0  0  0  0  0  0  0  0  0  0
    2.7886   -4.3786    0.0000 O   0  0  0  0  0  0  0  0  0  0  0  0
    2.2484   -6.9199    0.0000 O   0  0  0  0  0  0  0  0  0  0  0  0
  1  2  1  0
  1  3  1  0
  3  4  1  1
  4  5  1  0
  5  6  1  0
  5  7  1  0
  3  8  1  0
  8  9  2  0
  8 10  1  0
 10 11  1  0
 10 12  1  0
 12 13  1  1
 13 14  1  0
 14 15  1  0
 14 16  1  0
 12 17  1  0
 17 18  2  0
 17 19  1  0
 19 20  1  0
 20 21  1  1
 21 22  1  0
 22 23  1  0
 22 24  1  0
 20 25  1  0
 25 26  2  0
 25 27  1  0
 27 28  1  0
 28 29  1  0
 29 30  1  0
 30 31  1  0
 31 32  1  6
 32 33  2  0
 32 34  1  0
 34 35  1  0
 35 36  1  6
 36 37  1  0
 37 38  3  0
 35 39  1  0
 39 40  2  0
 39 41  1  0
 31 27  1  0
M  END
$$$$

     RDKit          2D

 43 44  0  0  0  0  0  0  0  0999 V2000
    1.5000   -7.7942    0.0000 N   0  0  0  0  0  0  0  0  0  0  0  0
    0.7500   -9.0933    0.0000 C   0  0  0  0  0  0  0  0  0  0  0  0
    1.5000  -10.3923    0.0000 C   0  0  0  0  0  0  0  0  0  0  0  0
    3.0000  -10.3923    0.0000 C   0  0  0  0  0  0  0  0  0  0  0  0
    3.7500  -11.6913    0.0000 C   0  0  0  0  0  0  0  0  0  0  0  0
    5.2500  -11.6913    0.0000 C   0  0  0  0  0  0  0  0  0  0  0  0
    6.0000  -10.3923    0.0000 C   0  0  0  0  0  0  0  0  0  0  0  0
    5.2500   -9.0933    0.0000 C   0  0  0  0  0  0  0  0  0  0  0  0
    3.7500   -9.0933    0.0000 C   0  0  0  0  0  0  0  0  0  0  0  0
   -0.7500   -9.0933    0.0000 C   0  0  0  0  0  0  0  0  0  0  0  0
   -1.5000  -10.3923    0.0000 O   0  0  0  0  0  0  0  0  0  0  0  0
   -1.5000   -7.7942    0.0000 N   0  0  0  0  0  0  0  0  0  0  0  0
   -3.0000   -7.7942    0.0000 C   0  0  0  0  0  0  0  0  0  0  0  0
   -0.7500   -6.4952    0.0000 C   0  0  0  0  0  0  0  0  0  0  0  0
    0.7500   -6.4952    0.0000 C   0  0  0  0  0  0  0  0  0  0  0  0
    1.5000   -5.1962    0.0000 C   0  0  0  0  0  0  0  0  0  0  0  0
    3.0000   -5.1962    0.0000 C   0  0  0  0  0  0  0  0  0  0  0  0
    0.7500   -3.8971    0.0000 C   0  0  0  0  0  0  0  0  0  0  0  0
   -1.5000   -5.1962    0.0000 C   0  0  0  0  0  0  0  0  0  0  0  0
   -0.7500   -3.8971    0.0000 O   0  0  0  0  0  0  0  0  0  0  0  0
   -3.0000   -5.1962    0.0000 N   0  0  0  0  0  0  0  0  0  0  0  0
   -3.7500   -3.8971    0.0000 C   0  0  0  0  0  0  0  0  0  0  0  0
   -5.2500   -3.8971    0.0000 C   0  0  0  0  0  0  0  0  0  0  0  0
   -6.0000   -5.1962    0.0000 C   0  0  0  0  0  0  0  0  0  0  0  0
   -7.5000   -5.1962    0.0000 C   0  0  0  0  0  0  0  0  0  0  0  0
   -5.2500   -6.4952    0.0000 C   0  0  0  0  0  0  0  0  0  0  0  0
   -3.0000   -2.5981    0.0000 C   0  0  0  0  0  0  0  0  0  0  0  0
   -1.5000   -2.5981    0.0000 O   0  0  0  0  0  0  0  0  0  0  0  0
   -3.7500   -1.2990    0.0000 N   0  0  0  0  0  0  0  0  0  0  0  0
   -5.2418   -1.1422    0.0000 C   0  0  0  0  0  0  0  0  0  0  0  0
   -5.5537    0.3250    0.0000 C   0  0  0  0  0  0  0  0  0  0  0  0
   -4.2546    1.0750    0.0000 C   0  0  0  0  0  0  0  0  0  0  0  0
   -3.1399    0.0713    0.0000 C   0  0  0  0  0  0  0  0  0  0  0  0
   -1.6727    0.3831    0.0000 C   0  0  0  0  0  0  0  0  0  0  0  0
   -0.6690   -0.7316    0.0000 O   0  0  0  0  0  0  0  0  0  0  0  0
   -1.2091    1.8097    0.0000 N   0  0  0  0  0  0  0  0  0  0  0  0
    0.2581    2.1216    0.0000 C   0  0  0  0  0  0  0  0  0  0  0  0
    0.7216    3.5482    0.0000 C   0  0  0  0  0  0  0  0  0  0  0  0
    2.1888    3.8601    0.0000 C   0  0  0  0  0  0  0  0  0  0  0  0
    3.6560    4.1719    0.0000 C   0  0  0  0  0  0  0  0  0  0  0  0
    1.2618    1.0069    0.0000 C   0  0  0  0  0  0  0  0  0  0  0  0
    0.7982   -0.4197    0.0000 O   0  0  0  0  0  0  0  0  0  0  0  0
    2.7290    1.3188    0.0000 O   0  0  0  0  0  0  0  0  0  0  0  0
  2  1  1  1
  2  3  1  0
  3  4  1  0
  4  5  2  0
  5  6  1  0
  6  7  2  0
  7  8  1  0
  8  9  2  0
  2 10  1  0
 10 11  2  0
 10 12  1  0
 12 13  1  0
 12 14  1  0
 14 15  1  6
 15 16  1  0
 16 17  1  0
 16 18  1  0
 14 19  1  0
 19 20  2  0
 19 21  1  0
 21 22  1  0
 22 23  1  1
 23 24  1  0
 24 25  1  0
 24 26  1  0
 22 27  1  0
 27 28  2  0
 27 29  1  0
 29 30  1  0
 30 31  1  0
 31 32  1  0
 32 33  1  0
 33 34  1  1
 34 35  2  0
 34 36  1  0
 36 37  1  0
 37 38  1  1
 38 39  1  0
 39 40  3  0
 37 41  1  0
 41 42  2  0
 41 43  1  0
  9  4  1  0
 33 29  1  0
M  END
$$$$

     RDKit          2D

 43 44  0  0  0  0  0  0  0  0999 V2000
    1.5000   -7.7942    0.0000 N   0  0  0  0  0  0  0  0  0  0  0  0
    0.7500   -9.0933    0.0000 C   0  0  0  0  0  0  0  0  0  0  0  0
    1.5000  -10.3923    0.0000 C   0  0  0  0  0  0  0  0  0  0  0  0
    3.0000  -10.3923    0.0000 C   0  0  0  0  0  0  0  0  0  0  0  0
    3.7500  -11.6913    0.0000 C   0  0  0  0  0  0  0  0  0  0  0  0
    5.2500  -11.6913    0.0000 C   0  0  0  0  0  0  0  0  0  0  0  0
    6.0000  -10.3923    0.0000 C   0  0  0  0  0  0  0  0  0  0  0  0
    5.2500   -9.0933    0.0000 C   0  0  0  0  0  0  0  0  0  0  0  0
    3.7500   -9.0933    0.0000 C   0  0  0  0  0  0  0  0  0  0  0  0
   -0.7500   -9.0933    0.0000 C   0  0  0  0  0  0  0  0  0  0  0  0
   -1.5000  -10.3923    0.0000 O   0  0  0  0  0  0  0  0  0  0  0  0
   -1.5000   -7.7942    0.0000 N   0  0  0  0  0  0  0  0  0  0  0  0
   -3.0000   -7.7942    0.0000 C   0  0  0  0  0  0  0  0  0  0  0  0
   -0.7500   -6.4952    0.0000 C   0  0  0  0  0  0  0  0  0  0  0  0
    0.7500   -6.4952    0.0000 C   0  0  0  0  0  0  0  0  0  0  0  0
    1.5000   -5.1962    0.0000 C   0  0  0  0  0  0  0  0  0  0  0  0
    3.0000   -5.1962    0.0000 C   0  0  0  0  0  0  0  0  0  0  0  0
    0.7500   -3.8971    0.0000 C   0  0  0  0  0  0  0  0  0  0  0  0
   -1.5000   -5.1962    0.0000 C   0  0  0  0  0  0  0  0  0  0  0  0
   -0.7500   -3.8971    0.0000 O   0  0  0  0  0  0  0  0  0  0  0  0
   -3.0000   -5.1962    0.0000 N   0  0  0  0  0  0  0  0  0  0  0  0
   -3.7500   -3.8971    0.0000 C   0  0  0  0  0  0  0  0  0  0  0  0
   -5.2500   -3.8971    0.0000 C   0  0  0  0  0  0  0  0  0  0  0  0
   -6.0000   -5.1962    0.0000 C   0  0  0  0  0  0  0  0  0  0  0  0
   -7.5000   -5.1962    0.0000 C   0  0  0  0  0  0  0  0  0  0  0  0
   -5.2500   -6.4952    0.0000 C   0  0  0  0  0  0  0  0  0  0  0  0
   -3.0000   -2.5981    0.0000 C   0  0  0  0  0  0  0  0  0  0  0  0
   -1.5000   -2.5981    0.0000 O   0  0  0  0  0  0  0  0  0  0  0  0
   -3.7500   -1.2990    0.0000 N   0  0  0  0  0  0  0  0  0  0  0  0
   -5.2418   -1.1422    0.0000 C   0  0  0  0  0  0  0  0  0  0  0  0
   -5.5537    0.3250    0.0000 C   0  0  0  0  0  0  0  0  0  0  0  0
   -4.2546    1.0750    0.0000 C   0  0  0  0  0  0  0  0  0  0  0  0
   -3.1399    0.0713    0.0000 C   0  0  0  0  0  0  0  0  0  0  0  0
   -1.6727    0.3831    0.0000 C   0  0  0  0  0  0  0  0  0  0  0  0
   -0.6690   -0.7316    0.0000 O   0  0  0  0  0  0  0  0  0  0  0  0
   -1.2091    1.8097    0.0000 N   0  0  0  0  0  0  0  0  0  0  0  0
    0.2581    2.1216    0.0000 C   0  0  0  0  0  0  0  0  0  0  0  0
    0.7216    3.5482    0.0000 C   0  0  0  0  0  0  0  0  0  0  0  0
    2.1888    3.8601    0.0000 C   0  0  0  0  0  0  0  0  0  0  0  0
    3.6560    4.1719    0.0000 C   0  0  0  0  0  0  0  0  0  0  0  0
    1.2618    1.0069    0.0000 C   0  0  0  0  0  0  0  0  0  0  0  0
    0.7982   -0.4197    0.0000 O   0  0  0  0  0  0  0  0  0  0  0  0
    2.7290    1.3188    0.0000 O   0  0  0  0  0  0  0  0  0  0  0  0
  2  1  1  6
  2  3  1  0
  3  4  1  0
  4  5  2  0
  5  6  1  0
  6  7  2  0
  7  8  1  0
  8  9  2  0
  2 10  1  0
 10 11  2  0
 10 12  1  0
 12 13  1  0
 12 14  1  0
 14 15  1  6
 15 16  1  0
 16 17  1  0
 16 18  1  0
 14 19  1  0
 19 20  2  0
 19 21  1  0
 21 22  1  0
 22 23  1  1
 23 24  1  0
 24 25  1  0
 24 26  1  0
 22 27  1  0
 27 28  2  0
 27 29  1  0
 29 30  1  0
 30 31  1  0
 31 32  1  0
 32 33  1  0
 33 34  1  1
 34 35  2  0
 34 36  1  0
 36 37  1  0
 37 38  1  1
 38 39  1  0
 39 40  3  0
 37 41  1  0
 41 42  2  0
 41 43  1  0
  9  4  1  0
 33 29  1  0
M  END
$$$$

     RDKit          2D

 44 45  0  0  0  0  0  0  0  0999 V2000
    3.7500   -6.4952    0.0000 N   0  0  0  0  0  0  0  0  0  0  0  0
    3.0000   -5.1962    0.0000 C   0  0  0  0  0  0  0  0  0  0  0  0
    3.0000   -7.7942    0.0000 C   0  0  0  0  0  0  0  0  0  0  0  0
    3.7500   -9.0933    0.0000 C   0  0  0  0  0  0  0  0  0  0  0  0
    5.2500   -9.0933    0.0000 C   0  0  0  0  0  0  0  0  0  0  0  0
    6.0000  -10.3923    0.0000 C   0  0  0  0  0  0  0  0  0  0  0  0
    7.5000  -10.3923    0.0000 C   0  0  0  0  0  0  0  0  0  0  0  0
    8.2500   -9.0933    0.0000 C   0  0  0  0  0  0  0  0  0  0  0  0
    7.5000   -7.7942    0.0000 C   0  0  0  0  0  0  0  0  0  0  0  0
    6.0000   -7.7942    0.0000 C   0  0  0  0  0  0  0  0  0  0  0  0
    1.5000   -7.7942    0.0000 C   0  0  0  0  0  0  0  0  0  0  0  0
    0.7500   -9.0933    0.0000 O   0  0  0  0  0  0  0  0  0  0  0  0
    0.7500   -6.4952    0.0000 N   0  0  0  0  0  0  0  0  0  0  0  0
    1.5000   -5.1962    0.0000 C   0  0  0  0  0  0  0  0  0  0  0  0
   -0.7500   -6.4952    0.0000 C   0  0  0  0  0  0  0  0  0  0  0  0
   -1.5000   -7.7942    0.0000 C   0  0  0  0  0  0  0  0  0  0  0  0
   -3.0000   -7.7942    0.0000 C   0  0  0  0  0  0  0  0  0  0  0  0
   -3.7500   -9.0933    0.0000 C   0  0  0  0  0  0  0  0  0  0  0  0
   -3.7500   -6.4952    0.0000 C   0  0  0  0  0  0  0  0  0  0  0  0
   -1.5000   -5.1962    0.0000 C   0  0  0  0  0  0  0  0  0  0  0  0
   -0.7500   -3.8971    0.0000 O   0  0  0  0  0  0  0  0  0  0  0  0
   -3.0000   -5.1962    0.0000 N   0  0  0  0  0  0  0  0  0  0  0  0
   -3.7500   -3.8971    0.0000 C   0  0  0  0  0  0  0  0  0  0  0  0
   -5.2500   -3.8971    0.0000 C   0  0  0  0  0  0  0  0  0  0  0  0
   -6.0000   -5.1962    0.0000 C   0  0  0  0  0  0  0  0  0  0  0  0
   -7.5000   -5.1962    0.0000 C   0  0  0  0  0  0  0  0  0  0  0  0
   -5.2500   -6.4952    0.0000 C   0  0  0  0  0  0  0  0  0  0  0  0
   -3.0000   -2.5981    0.0000 C   0  0  0  0  0  0  0  0  0  0  0  0
   -1.5000   -2.5981    0.0000 O   0  0  0  0  0  0  0  0  0  0  0  0
   -3.7500   -1.2990    0.0000 N   0  0  0  0  0  0  0  0  0  0  0  0
   -5.2418   -1.1422    0.0000 C   0  0  0  0  0  0  0  0  0  0  0  0
   -5.5537    0.3250    0.0000 C   0  0  0  0  0  0  0  0  0  0  0  0
   -4.2546    1.0750    0.0000 C   0  0  0  0  0  0  0  0  0  0  0  0
   -3.1399    0.0713    0.0000 C   0  0  0  0  0  0  0  0  0  0  0  0
   -1.6727    0.3831    0.0000 C   0  0  0  0  0  0  0  0  0  0  0  0
   -0.6690   -0.7316    0.0000 O   0  0  0  0  0  0  0  0  0  0  0  0
   -1.2091    1.8097    0.0000 N   0  0  0  0  0  0  0  0  0  0  0  0
    0.2581    2.1216    0.0000 C   0  0  0  0  0  0  0  0  0  0  0  0
    0.7216    3.5482    0.0000 C   0  0  0  0  0  0  0  0  0  0  0  0
    2.1888    3.8601    0.0000 C   0  0  0  0  0  0  0  0  0  0  0  0
    3.6560    4.1719    0.0000 C   0  0  0  0  0  0  0  0  0  0  0  0
    1.2618    1.0069    0.0000 C   0  0  0  0  0  0  0  0  0  0  0  0
    0.7982   -0.4197    0.0000 O   0  0  0  0  0  0  0  0  0  0  0  0
    2.7290    1.3188    0.0000 O   0  0  0  0  0  0  0  0  0  0  0  0
  1  2  1  0
  1  3  1  0
  3  4  1  1
  4  5  1  0
  5  6  2  0
  6  7  1  0
  7  8  2  0
  8  9  1  0
  9 10  2  0
  3 11  1  0
 11 12  2  0
 11 13  1  0
 13 14  1  0
 13 15  1  0
 15 16  1  1
 16 17  1  0
 17 18  1  0
 17 19  1  0
 15 20  1  0
 20 21  2  0
 20 22  1  0
 22 23  1  0
 23 24  1  1
 24 25  1  0
 25 26  1  0
 25 27  1  0
 23 28  1  0
 28 29  2  0
 28 30  1  0
 30 31  1  0
 31 32  1  0
 32 33  1  0
 33 34  1  0
 34 35  1  1
 35 36  2  0
 35 37  1  0
 37 38  1  0
 38 39  1  1
 39 40  1  0
 40 41  3  0
 38 42  1  0
 42 43  2  0
 42 44  1  0
 10  5  1  0
 34 30  1  0
M  END
$$$$

     RDKit          2D

 44 45  0  0  0  0  0  0  0  0999 V2000
    3.7500   -6.4952    0.0000 N   0  0  0  0  0  0  0  0  0  0  0  0
    3.0000   -5.1962    0.0000 C   0  0  0  0  0  0  0  0  0  0  0  0
    3.0000   -7.7942    0.0000 C   0  0  0  0  0  0  0  0  0  0  0  0
    3.7500   -9.0933    0.0000 C   0  0  0  0  0  0  0  0  0  0  0  0
    5.2500   -9.0933    0.0000 C   0  0  0  0  0  0  0  0  0  0  0  0
    6.0000  -10.3923    0.0000 C   0  0  0  0  0  0  0  0  0  0  0  0
    7.5000  -10.3923    0.0000 C   0  0  0  0  0  0  0  0  0  0  0  0
    8.2500   -9.0933    0.0000 C   0  0  0  0  0  0  0  0  0  0  0  0
    7.5000   -7.7942    0.0000 C   0  0  0  0  0  0  0  0  0  0  0  0
    6.0000   -7.7942    0.0000 C   0  0  0  0  0  0  0  0  0  0  0  0
    1.5000   -7.7942    0.0000 C   0  0  0  0  0  0  0  0  0  0  0  0
    0.7500   -9.0933    0.0000 O   0  0  0  0  0  0  0  0  0  0  0  0
    0.7500   -6.4952    0.0000 N   0  0  0  0  0  0  0  0  0  0  0  0
    1.5000   -5.1962    0.0000 C   0  0  0  0  0  0  0  0  0  0  0  0
   -0.7500   -6.4952    0.0000 C   0  0  0  0  0  0  0  0  0  0  0  0
   -1.5000   -7.7942    0.0000 C   0  0  0  0  0  0  0  0  0  0  0  0
   -3.0000   -7.7942    0.0000 C   0  0  0  0  0  0  0  0  0  0  0  0
   -3.7500   -9.0933    0.0000 C   0  0  0  0  0  0  0  0  0  0  0  0
   -3.7500   -6.4952    0.0000 C   0  0  0  0  0  0  0  0  0  0  0  0
   -1.5000   -5.1962    0.0000 C   0  0  0  0  0  0  0  0  0  0  0  0
   -0.7500   -3.8971    0.0000 O   0  0  0  0  0  0  0  0  0  0  0  0
   -3.0000   -5.1962    0.0000 N   0  0  0  0  0  0  0  0  0  0  0  0
   -3.7500   -3.8971    0.0000 C   0  0  0  0  0  0  0  0  0  0  0  0
   -5.2500   -3.8971    0.0000 C   0  0  0  0  0  0  0  0  0  0  0  0
   -6.0000   -5.1962    0.0000 C   0  0  0  0  0  0  0  0  0  0  0  0
   -7.5000   -5.1962    0.0000 C   0  0  0  0  0  0  0  0  0  0  0  0
   -5.2500   -6.4952    0.0000 C   0  0  0  0  0  0  0  0  0  0  0  0
   -3.0000   -2.5981    0.0000 C   0  0  0  0  0  0  0  0  0  0  0  0
   -1.5000   -2.5981    0.0000 O   0  0  0  0  0  0  0  0  0  0  0  0
   -3.7500   -1.2990    0.0000 N   0  0  0  0  0  0  0  0  0  0  0  0
   -5.2418   -1.1422    0.0000 C   0  0  0  0  0  0  0  0  0  0  0  0
   -5.5537    0.3250    0.0000 C   0  0  0  0  0  0  0  0  0  0  0  0
   -4.2546    1.0750    0.0000 C   0  0  0  0  0  0  0  0  0  0  0  0
   -3.1399    0.0713    0.0000 C   0  0  0  0  0  0  0  0  0  0  0  0
   -1.6727    0.3831    0.0000 C   0  0  0  0  0  0  0  0  0  0  0  0
   -0.6690   -0.7316    0.0000 O   0  0  0  0  0  0  0  0  0  0  0  0
   -1.2091    1.8097    0.0000 N   0  0  0  0  0  0  0  0  0  0  0  0
    0.2581    2.1216    0.0000 C   0  0  0  0  0  0  0  0  0  0  0  0
    0.7216    3.5482    0.0000 C   0  0  0  0  0  0  0  0  0  0  0  0
    2.1888    3.8601    0.0000 C   0  0  0  0  0  0  0  0  0  0  0  0
    3.6560    4.1719    0.0000 C   0  0  0  0  0  0  0  0  0  0  0  0
    1.2618    1.0069    0.0000 C   0  0  0  0  0  0  0  0  0  0  0  0
    0.7982   -0.4197    0.0000 O   0  0  0  0  0  0  0  0  0  0  0  0
    2.7290    1.3188    0.0000 O   0  0  0  0  0  0  0  0  0  0  0  0
  1  2  1  0
  1  3  1  0
  3  4  1  6
  4  5  1  0
  5  6  2  0
  6  7  1  0
  7  8  2  0
  8  9  1  0
  9 10  2  0
  3 11  1  0
 11 12  2  0
 11 13  1  0
 13 14  1  0
 13 15  1  0
 15 16  1  1
 16 17  1  0
 17 18  1  0
 17 19  1  0
 15 20  1  0
 20 21  2  0
 20 22  1  0
 22 23  1  0
 23 24  1  1
 24 25  1  0
 25 26  1  0
 25 27  1  0
 23 28  1  0
 28 29  2  0
 28 30  1  0
 30 31  1  0
 31 32  1  0
 32 33  1  0
 33 34  1  0
 34 35  1  1
 35 36  2  0
 35 37  1  0
 37 38  1  0
 38 39  1  1
 39 40  1  0
 40 41  3  0
 38 42  1  0
 42 43  2  0
 42 44  1  0
 10  5  1  0
 34 30  1  0
M  END
$$$$

     RDKit          2D

 39 39  0  0  0  0  0  0  0  0999 V2000
    5.0260    9.0933    0.0000 N   0  0  0  0  0  0  0  0  0  0  0  0
    5.7760    7.7942    0.0000 C   0  0  0  0  0  0  0  0  0  0  0  0
    7.2760    7.7942    0.0000 C   0  0  0  0  0  0  0  0  0  0  0  0
    8.0260    6.4952    0.0000 O   0  0  0  0  0  0  0  0  0  0  0  0
    8.0260    9.0933    0.0000 C   0  0  0  0  0  0  0  0  0  0  0  0
    5.0260    6.4952    0.0000 C   0  0  0  0  0  0  0  0  0  0  0  0
    5.7760    5.1962    0.0000 O   0  0  0  0  0  0  0  0  0  0  0  0
    3.5260    6.4952    0.0000 N   0  0  0  0  0  0  0  0  0  0  0  0
    2.7760    7.7942    0.0000 C   0  0  0  0  0  0  0  0  0  0  0  0
    2.7760    5.1962    0.0000 C   0  0  0  0  0  0  0  0  0  0  0  0
    1.2760    5.1962    0.0000 C   0  0  0  0  0  0  0  0  0  0  0  0
    0.5260    6.4952    0.0000 C   0  0  0  0  0  0  0  0  0  0  0  0
   -0.9740    6.4952    0.0000 C   0  0  0  0  0  0  0  0  0  0  0  0
    1.2760    7.7942    0.0000 C   0  0  0  0  0  0  0  0  0  0  0  0
    3.5260    3.8971    0.0000 C   0  0  0  0  0  0  0  0  0  0  0  0
    5.0260    3.8971    0.0000 O   0  0  0  0  0  0  0  0  0  0  0  0
    2.7760    2.5981    0.0000 N   0  0  0  0  0  0  0  0  0  0  0  0
    3.5260    1.2990    0.0000 C   0  0  0  0  0  0  0  0  0  0  0  0
    5.0260    1.2990    0.0000 C   0  0  0  0  0  0  0  0  0  0  0  0
    5.7760    0.0000    0.0000 C   0  0  0  0  0  0  0  0  0  0  0  0
    7.2760    0.0000    0.0000 C   0  0  0  0  0  0  0  0  0  0  0  0
    5.0260   -1.2990    0.0000 C   0  0  0  0  0  0  0  0  0  0  0  0
    2.7760   -0.0000    0.0000 C   0  0  0  0  0  0  0  0  0  0  0  0
    3.5260   -1.2990    0.0000 O   0  0  0  0  0  0  0  0  0  0  0  0
    1.2760   -0.0000    0.0000 N   0  0  0  0  0  0  0  0  0  0  0  0
    0.3943    1.2135    0.0000 C   0  0  0  0  0  0  0  0  0  0  0  0
   -1.0323    0.7500    0.0000 C   0  0  0  0  0  0  0  0  0  0  0  0
   -1.0323   -0.7500    0.0000 C   0  0  0  0  0  0  0  0  0  0  0  0
    0.3943   -1.2135    0.0000 C   0  0  0  0  0  0  0  0  0  0  0  0
    0.8578   -2.6401    0.0000 C   0  0  0  0  0  0  0  0  0  0  0  0
    2.3250   -2.9520    0.0000 O   0  0  0  0  0  0  0  0  0  0  0  0
   -0.1459   -3.7548    0.0000 N   0  0  0  0  0  0  0  0  0  0  0  0
    0.3177   -5.1814    0.0000 C   0  0  0  0  0  0  0  0  0  0  0  0
   -0.6860   -6.2961    0.0000 C   0  0  0  0  0  0  0  0  0  0  0  0
   -0.2225   -7.7227    0.0000 C   0  0  0  0  0  0  0  0  0  0  0  0
    0.2410   -9.1493    0.0000 C   0  0  0  0  0  0  0  0  0  0  0  0
    1.7849   -5.4933    0.0000 C   0  0  0  0  0  0  0  0  0  0  0  0
    2.7886   -4.3786    0.0000 O   0  0  0  0  0  0  0  0  0  0  0  0
    2.2484   -6.9199    0.0000 O   0  0  0  0  0  0  0  0  0  0  0  0
  2  1  1  1
  2  3  1  0
  3  4  1  0
  3  5  1  1
  2  6  1  0
  6  7  2  0
  6  8  1  0
  8  9  1  0
  8 10  1  0
 10 11  1  6
 11 12  1  0
 12 13  1  0
 12 14  1  0
 10 15  1  0
 15 16  2  0
 15 17  1  0
 17 18  1  0
 18 19  1  1
 19 20  1  0
 20 21  1  0
 20 22  1  0
 18 23  1  0
 23 24  2  0
 23 25  1  0
 25 26  1  0
 26 27  1  0
 27 28  1  0
 28 29  1  0
 29 30  1  6
 30 31  2  0
 30 32  1  0
 32 33  1  0
 33 34  1  6
 34 35  1  0
 35 36  3  0
 33 37  1  0
 37 38  2  0
 37 39  1  0
 29 25  1  0
M  END
$$$$

     RDKit          2D

 39 39  0  0  0  0  0  0  0  0999 V2000
    5.0260    9.0933    0.0000 N   0  0  0  0  0  0  0  0  0  0  0  0
    5.7760    7.7942    0.0000 C   0  0  0  0  0  0  0  0  0  0  0  0
    7.2760    7.7942    0.0000 C   0  0  0  0  0  0  0  0  0  0  0  0
    8.0260    6.4952    0.0000 O   0  0  0  0  0  0  0  0  0  0  0  0
    8.0260    9.0933    0.0000 C   0  0  0  0  0  0  0  0  0  0  0  0
    5.0260    6.4952    0.0000 C   0  0  0  0  0  0  0  0  0  0  0  0
    5.7760    5.1962    0.0000 O   0  0  0  0  0  0  0  0  0  0  0  0
    3.5260    6.4952    0.0000 N   0  0  0  0  0  0  0  0  0  0  0  0
    2.7760    7.7942    0.0000 C   0  0  0  0  0  0  0  0  0  0  0  0
    2.7760    5.1962    0.0000 C   0  0  0  0  0  0  0  0  0  0  0  0
    1.2760    5.1962    0.0000 C   0  0  0  0  0  0  0  0  0  0  0  0
    0.5260    6.4952    0.0000 C   0  0  0  0  0  0  0  0  0  0  0  0
   -0.9740    6.4952    0.0000 C   0  0  0  0  0  0  0  0  0  0  0  0
    1.2760    7.7942    0.0000 C   0  0  0  0  0  0  0  0  0  0  0  0
    3.5260    3.8971    0.0000 C   0  0  0  0  0  0  0  0  0  0  0  0
    5.0260    3.8971    0.0000 O   0  0  0  0  0  0  0  0  0  0  0  0
    2.7760    2.5981    0.0000 N   0  0  0  0  0  0  0  0  0  0  0  0
    3.5260    1.2990    0.0000 C   0  0  0  0  0  0  0  0  0  0  0  0
    5.0260    1.2990    0.0000 C   0  0  0  0  0  0  0  0  0  0  0  0
    5.7760    0.0000    0.0000 C   0  0  0  0  0  0  0  0  0  0  0  0
    7.2760    0.0000    0.0000 C   0  0  0  0  0  0  0  0  0  0  0  0
    5.0260   -1.2990    0.0000 C   0  0  0  0  0  0  0  0  0  0  0  0
    2.7760   -0.0000    0.0000 C   0  0  0  0  0  0  0  0  0  0  0  0
    3.5260   -1.2990    0.0000 O   0  0  0  0  0  0  0  0  0  0  0  0
    1.2760   -0.0000    0.0000 N   0  0  0  0  0  0  0  0  0  0  0  0
    0.3943    1.2135    0.0000 C   0  0  0  0  0  0  0  0  0  0  0  0
   -1.0323    0.7500    0.0000 C   0  0  0  0  0  0  0  0  0  0  0  0
   -1.0323   -0.7500    0.0000 C   0  0  0  0  0  0  0  0  0  0  0  0
    0.3943   -1.2135    0.0000 C   0  0  0  0  0  0  0  0  0  0  0  0
    0.8578   -2.6401    0.0000 C   0  0  0  0  0  0  0  0  0  0  0  0
    2.3250   -2.9520    0.0000 O   0  0  0  0  0  0  0  0  0  0  0  0
   -0.1459   -3.7548    0.0000 N   0  0  0  0  0  0  0  0  0  0  0  0
    0.3177   -5.1814    0.0000 C   0  0  0  0  0  0  0  0  0  0  0  0
   -0.6860   -6.2961    0.0000 C   0  0  0  0  0  0  0  0  0  0  0  0
   -0.2225   -7.7227    0.0000 C   0  0  0  0  0  0  0  0  0  0  0  0
    0.2410   -9.1493    0.0000 C   0  0  0  0  0  0  0  0  0  0  0  0
    1.7849   -5.4933    0.0000 C   0  0  0  0  0  0  0  0  0  0  0  0
    2.7886   -4.3786    0.0000 O   0  0  0  0  0  0  0  0  0  0  0  0
    2.2484   -6.9199    0.0000 O   0  0  0  0  0  0  0  0  0  0  0  0
  2  1  1  6
  2  3  1  0
  3  4  1  0
  3  5  1  1
  2  6  1  0
  6  7  2  0
  6  8  1  0
  8  9  1  0
  8 10  1  0
 10 11  1  6
 11 12  1  0
 12 13  1  0
 12 14  1  0
 10 15  1  0
 15 16  2  0
 15 17  1  0
 17 18  1  0
 18 19  1  1
 19 20  1  0
 20 21  1  0
 20 22  1  0
 18 23  1  0
 23 24  2  0
 23 25  1  0
 25 26  1  0
 26 27  1  0
 27 28  1  0
 28 29  1  0
 29 30  1  6
 30 31  2  0
 30 32  1  0
 32 33  1  0
 33 34  1  6
 34 35  1  0
 35 36  3  0
 33 37  1  0
 37 38  2  0
 37 39  1  0
 29 25  1  0
M  END
$$$$

     RDKit          2D

 40 40  0  0  0  0  0  0  0  0999 V2000
    5.0260    9.0933    0.0000 N   0  0  0  0  0  0  0  0  0  0  0  0
    5.7760   10.3923    0.0000 C   0  0  0  0  0  0  0  0  0  0  0  0
    5.7760    7.7942    0.0000 C   0  0  0  0  0  0  0  0  0  0  0  0
    7.2760    7.7942    0.0000 C   0  0  0  0  0  0  0  0  0  0  0  0
    8.0260    6.4952    0.0000 O   0  0  0  0  0  0  0  0  0  0  0  0
    8.0260    9.0933    0.0000 C   0  0  0  0  0  0  0  0  0  0  0  0
    5.0260    6.4952    0.0000 C   0  0  0  0  0  0  0  0  0  0  0  0
    5.7760    5.1962    0.0000 O   0  0  0  0  0  0  0  0  0  0  0  0
    3.5260    6.4952    0.0000 N   0  0  0  0  0  0  0  0  0  0  0  0
    2.7760    7.7942    0.0000 C   0  0  0  0  0  0  0  0  0  0  0  0
    2.7760    5.1962    0.0000 C   0  0  0  0  0  0  0  0  0  0  0  0
    1.2760    5.1962    0.0000 C   0  0  0  0  0  0  0  0  0  0  0  0
    0.5260    6.4952    0.0000 C   0  0  0  0  0  0  0  0  0  0  0  0
   -0.9740    6.4952    0.0000 C   0  0  0  0  0  0  0  0  0  0  0  0
    1.2760    7.7942    0.0000 C   0  0  0  0  0  0  0  0  0  0  0  0
    3.5260    3.8971    0.0000 C   0  0  0  0  0  0  0  0  0  0  0  0
    5.0260    3.8971    0.0000 O   0  0  0  0  0  0  0  0  0  0  0  0
    2.7760    2.5981    0.0000 N   0  0  0  0  0  0  0  0  0  0  0  0
    3.5260    1.2990    0.0000 C   0  0  0  0  0  0  0  0  0  0  0  0
    5.0260    1.2990    0.0000 C   0  0  0  0  0  0  0  0  0  0  0  0
    5.7760    0.0000    0.0000 C   0  0  0  0  0  0  0  0  0  0  0  0
    5.0260   -1.2990    0.0000 C   0  0  0  0  0  0  0  0  0  0  0  0
    7.2760    0.0000    0.0000 C   0  0  0  0  0  0  0  0  0  0  0  0
    2.7760   -0.0000    0.0000 C   0  0  0  0  0  0  0  0  0  0  0  0
    3.5260   -1.2990    0.0000 O   0  0  0  0  0  0  0  0  0  0  0  0
    1.2760   -0.0000    0.0000 N   0  0  0  0  0  0  0  0  0  0  0  0
    0.3943    1.2135    0.0000 C   0  0  0  0  0  0  0  0  0  0  0  0
   -1.0323    0.7500    0.0000 C   0  0  0  0  0  0  0  0  0  0  0  0
   -1.0323   -0.7500    0.0000 C   0  0  0  0  0  0  0  0  0  0  0  0
    0.3943   -1.2135    0.0000 C   0  0  0  0  0  0  0  0  0  0  0  0
    0.8578   -2.6401    0.0000 C   0  0  0  0  0  0  0  0  0  0  0  0
    2.3250   -2.9520    0.0000 O   0  0  0  0  0  0  0  0  0  0  0  0
   -0.1459   -3.7548    0.0000 N   0  0  0  0  0  0  0  0  0  0  0  0
    0.3177   -5.1814    0.0000 C   0  0  0  0  0  0  0  0  0  0  0  0
   -0.6860   -6.2961    0.0000 C   0  0  0  0  0  0  0  0  0  0  0  0
   -0.2225   -7.7227    0.0000 C   0  0  0  0  0  0  0  0  0  0  0  0
    0.2410   -9.1493    0.0000 C   0  0  0  0  0  0  0  0  0  0  0  0
    1.7849   -5.4933    0.0000 C   0  0  0  0  0  0  0  0  0  0  0  0
    2.7886   -4.3786    0.0000 O   0  0  0  0  0  0  0  0  0  0  0  0
    2.2484   -6.9199    0.0000 O   0  0  0  0  0  0  0  0  0  0  0  0
  1  2  1  0
  3  1  1  1
  3  4  1  0
  4  5  1  0
  4  6  1  1
  3  7  1  0
  7  8  2  0
  7  9  1  0
  9 10  1  0
  9 11  1  0
 11 12  1  6
 12 13  1  0
 13 14  1  0
 13 15  1  0
 11 16  1  0
 16 17  2  0
 16 18  1  0
 18 19  1  0
 19 20  1  1
 20 21  1  0
 21 22  1  0
 21 23  1  0
 19 24  1  0
 24 25  2  0
 24 26  1  0
 26 27  1  0
 27 28  1  0
 28 29  1  0
 29 30  1  0
 30 31  1  6
 31 32  2  0
 31 33  1  0
 33 34  1  0
 34 35  1  6
 35 36  1  0
 36 37  3  0
 34 38  1  0
 38 39  2  0
 38 40  1  0
 30 26  1  0
M  END
$$$$

     RDKit          2D

 40 40  0  0  0  0  0  0  0  0999 V2000
    5.0260    9.0933    0.0000 N   0  0  0  0  0  0  0  0  0  0  0  0
    5.7760   10.3923    0.0000 C   0  0  0  0  0  0  0  0  0  0  0  0
    5.7760    7.7942    0.0000 C   0  0  0  0  0  0  0  0  0  0  0  0
    7.2760    7.7942    0.0000 C   0  0  0  0  0  0  0  0  0  0  0  0
    8.0260    6.4952    0.0000 O   0  0  0  0  0  0  0  0  0  0  0  0
    8.0260    9.0933    0.0000 C   0  0  0  0  0  0  0  0  0  0  0  0
    5.0260    6.4952    0.0000 C   0  0  0  0  0  0  0  0  0  0  0  0
    5.7760    5.1962    0.0000 O   0  0  0  0  0  0  0  0  0  0  0  0
    3.5260    6.4952    0.0000 N   0  0  0  0  0  0  0  0  0  0  0  0
    2.7760    7.7942    0.0000 C   0  0  0  0  0  0  0  0  0  0  0  0
    2.7760    5.1962    0.0000 C   0  0  0  0  0  0  0  0  0  0  0  0
    1.2760    5.1962    0.0000 C   0  0  0  0  0  0  0  0  0  0  0  0
    0.5260    6.4952    0.0000 C   0  0  0  0  0  0  0  0  0  0  0  0
   -0.9740    6.4952    0.0000 C   0  0  0  0  0  0  0  0  0  0  0  0
    1.2760    7.7942    0.0000 C   0  0  0  0  0  0  0  0  0  0  0  0
    3.5260    3.8971    0.0000 C   0  0  0  0  0  0  0  0  0  0  0  0
    5.0260    3.8971    0.0000 O   0  0  0  0  0  0  0  0  0  0  0  0
    2.7760    2.5981    0.0000 N   0  0  0  0  0  0  0  0  0  0  0  0
    3.5260    1.2990    0.0000 C   0  0  0  0  0  0  0  0  0  0  0  0
    5.0260    1.2990    0.0000 C   0  0  0  0  0  0  0  0  0  0  0  0
    5.7760    0.0000    0.0000 C   0  0  0  0  0  0  0  0  0  0  0  0
    5.0260   -1.2990    0.0000 C   0  0  0  0  0  0  0  0  0  0  0  0
    7.2760    0.0000    0.0000 C   0  0  0  0  0  0  0  0  0  0  0  0
    2.7760   -0.0000    0.0000 C   0  0  0  0  0  0  0  0  0  0  0  0
    3.5260   -1.2990    0.0000 O   0  0  0  0  0  0  0  0  0  0  0  0
    1.2760   -0.0000    0.0000 N   0  0  0  0  0  0  0  0  0  0  0  0
    0.3943    1.2135    0.0000 C   0  0  0  0  0  0  0  0  0  0  0  0
   -1.0323    0.7500    0.0000 C   0  0  0  0  0  0  0  0  0  0  0  0
   -1.0323   -0.7500    0.0000 C   0  0  0  0  0  0  0  0  0  0  0  0
    0.3943   -1.2135    0.0000 C   0  0  0  0  0  0  0  0  0  0  0  0
    0.8578   -2.6401    0.0000 C   0  0  0  0  0  0  0  0  0  0  0  0
    2.3250   -2.9520    0.0000 O   0  0  0  0  0  0  0  0  0  0  0  0
   -0.1459   -3.7548    0.0000 N   0  0  0  0  0  0  0  0  0  0  0  0
    0.3177   -5.1814    0.0000 C   0  0  0  0  0  0  0  0  0  0  0  0
   -0.6860   -6.2961    0.0000 C   0  0  0  0  0  0  0  0  0  0  0  0
   -0.2225   -7.7227    0.0000 C   0  0  0  0  0  0  0  0  0  0  0  0
    0.2410   -9.1493    0.0000 C   0  0  0  0  0  0  0  0  0  0  0  0
    1.7849   -5.4933    0.0000 C   0  0  0  0  0  0  0  0  0  0  0  0
    2.7886   -4.3786    0.0000 O   0  0  0  0  0  0  0  0  0  0  0  0
    2.2484   -6.9199    0.0000 O   0  0  0  0  0  0  0  0  0  0  0  0
  1  2  1  0
  3  1  1  6
  3  4  1  0
  4  5  1  0
  4  6  1  1
  3  7  1  0
  7  8  2  0
  7  9  1  0
  9 10  1  0
  9 11  1  0
 11 12  1  6
 12 13  1  0
 13 14  1  0
 13 15  1  0
 11 16  1  0
 16 17  2  0
 16 18  1  0
 18 19  1  0
 19 20  1  1
 20 21  1  0
 21 22  1  0
 21 23  1  0
 19 24  1  0
 24 25  2  0
 24 26  1  0
 26 27  1  0
 27 28  1  0
 28 29  1  0
 29 30  1  0
 30 31  1  6
 31 32  2  0
 31 33  1  0
 33 34  1  0
 34 35  1  6
 35 36  1  0
 36 37  3  0
 34 38  1  0
 38 39  2  0
 38 40  1  0
 30 26  1  0
M  END
$$$$

     RDKit          2D

 40 40  0  0  0  0  0  0  0  0999 V2000
   -1.7240    2.5981    0.0000 N   0  0  0  0  0  0  0  0  0  0  0  0
   -3.2240    2.5981    0.0000 C   0  0  0  0  0  0  0  0  0  0  0  0
   -3.9740    1.2990    0.0000 C   0  0  0  0  0  0  0  0  0  0  0  0
   -5.4740    1.2990    0.0000 C   0  0  0  0  0  0  0  0  0  0  0  0
   -3.2240   -0.0000    0.0000 C   0  0  0  0  0  0  0  0  0  0  0  0
   -0.9740    3.8971    0.0000 C   0  0  0  0  0  0  0  0  0  0  0  0
    0.5260    3.8971    0.0000 C   0  0  0  0  0  0  0  0  0  0  0  0
    1.2760    2.5981    0.0000 O   0  0  0  0  0  0  0  0  0  0  0  0
    1.2760    5.1962    0.0000 N   0  0  0  0  0  0  0  0  0  0  0  0
    0.5260    6.4952    0.0000 C   0  0  0  0  0  0  0  0  0  0  0  0
    2.7760    5.1962    0.0000 C   0  0  0  0  0  0  0  0  0  0  0  0
    3.5260    6.4952    0.0000 C   0  0  0  0  0  0  0  0  0  0  0  0
    2.7760    7.7942    0.0000 C   0  0  0  0  0  0  0  0  0  0  0  0
    3.5260    9.0933    0.0000 C   0  0  0  0  0  0  0  0  0  0  0  0
    1.2760    7.7942    0.0000 C   0  0  0  0  0  0  0  0  0  0  0  0
    3.5260    3.8971    0.0000 C   0  0  0  0  0  0  0  0  0  0  0  0
    5.0260    3.8971    0.0000 O   0  0  0  0  0  0  0  0  0  0  0  0
    2.7760    2.5981    0.0000 N   0  0  0  0  0  0  0  0  0  0  0  0
    3.5260    1.2990    0.0000 C   0  0  0  0  0  0  0  0  0  0  0  0
    5.0260    1.2990    0.0000 C   0  0  0  0  0  0  0  0  0  0  0  0
    5.7760    0.0000    0.0000 C   0  0  0  0  0  0  0  0  0  0  0  0
    5.0260   -1.2990    0.0000 C   0  0  0  0  0  0  0  0  0  0  0  0
    7.2760    0.0000    0.0000 C   0  0  0  0  0  0  0  0  0  0  0  0
    2.7760    0.0000    0.0000 C   0  0  0  0  0  0  0  0  0  0  0  0
    3.5260   -1.2990    0.0000 O   0  0  0  0  0  0  0  0  0  0  0  0
    1.2760    0.0000    0.0000 N   0  0  0  0  0  0  0  0  0  0  0  0
    0.3943    1.2135    0.0000 C   0  0  0  0  0  0  0  0  0  0  0  0
   -1.0323    0.7500    0.0000 C   0  0  0  0  0  0  0  0  0  0  0  0
   -1.0323   -0.7500    0.0000 C   0  0  0  0  0  0  0  0  0  0  0  0
    0.3943   -1.2135    0.0000 C   0  0  0  0  0  0  0  0  0  0  0  0
    0.8578   -2.6401    0.0000 C   0  0  0  0  0  0  0  0  0  0  0  0
    2.3250   -2.9520    0.0000 O   0  0  0  0  0  0  0  0  0  0  0  0
   -0.1459   -3.7548    0.0000 N   0  0  0  0  0  0  0  0  0  0  0  0
    0.3177   -5.1814    0.0000 C   0  0  0  0  0  0  0  0  0  0  0  0
   -0.6860   -6.2961    0.0000 C   0  0  0  0  0  0  0  0  0  0  0  0
   -0.2225   -7.7227    0.0000 C   0  0  0  0  0  0  0  0  0  0  0  0
    0.2410   -9.1493    0.0000 C   0  0  0  0  0  0  0  0  0  0  0  0
    1.7849   -5.4933    0.0000 C   0  0  0  0  0  0  0  0  0  0  0  0
    2.7886   -4.3786    0.0000 O   0  0  0  0  0  0  0  0  0  0  0  0
    2.2484   -6.9199    0.0000 O   0  0  0  0  0  0  0  0  0  0  0  0
  1  2  1  0
  2  3  1  0
  3  4  1  0
  3  5  1  0
  1  6  1  0
  6  7  1  0
  7  8  2  0
  7  9  1  0
  9 10  1  0
  9 11  1  0
 11 12  1  1
 12 13  1  0
 13 14  1  0
 13 15  1  0
 11 16  1  0
 16 17  2  0
 16 18  1  0
 18 19  1  0
 19 20  1  1
 20 21  1  0
 21 22  1  0
 21 23  1  0
 19 24  1  0
 24 25  2  0
 24 26  1  0
 26 27  1  0
 27 28  1  0
 28 29  1  0
 29 30  1  0
 30 31  1  6
 31 32  2  0
 31 33  1  0
 33 34  1  0
 34 35  1  6
 35 36  1  0
 36 37  3  0
 34 38  1  0
 38 39  2  0
 38 40  1  0
 30 26  1  0
M  END
$$$$

     RDKit          2D

 43 43  0  0  0  0  0  0  0  0999 V2000
   -1.7240    2.5981    0.0000 N   0  0  0  0  0  0  0  0  0  0  0  0
   -3.2240    2.5981    0.0000 C   0  0  0  0  0  0  0  0  0  0  0  0
   -3.9740    1.2990    0.0000 C   0  0  0  0  0  0  0  0  0  0  0  0
   -5.4740    1.2990    0.0000 C   0  0  0  0  0  0  0  0  0  0  0  0
   -6.2240   -0.0000    0.0000 O   0  0  0  0  0  0  0  0  0  0  0  0
   -7.7240   -0.0000    0.0000 C   0  0  0  0  0  0  0  0  0  0  0  0
   -8.4740   -1.2990    0.0000 C   0  0  0  0  0  0  0  0  0  0  0  0
   -8.4740    1.2990    0.0000 C   0  0  0  0  0  0  0  0  0  0  0  0
   -0.9740    3.8971    0.0000 C   0  0  0  0  0  0  0  0  0  0  0  0
    0.5260    3.8971    0.0000 C   0  0  0  0  0  0  0  0  0  0  0  0
    1.2760    2.5981    0.0000 O   0  0  0  0  0  0  0  0  0  0  0  0
    1.2760    5.1962    0.0000 N   0  0  0  0  0  0  0  0  0  0  0  0
    0.5260    6.4952    0.0000 C   0  0  0  0  0  0  0  0  0  0  0  0
    2.7760    5.1962    0.0000 C   0  0  0  0  0  0  0  0  0  0  0  0
    3.5260    6.4952    0.0000 C   0  0  0  0  0  0  0  0  0  0  0  0
    2.7760    7.7942    0.0000 C   0  0  0  0  0  0  0  0  0  0  0  0
    3.5260    9.0933    0.0000 C   0  0  0  0  0  0  0  0  0  0  0  0
    1.2760    7.7942    0.0000 C   0  0  0  0  0  0  0  0  0  0  0  0
    3.5260    3.8971    0.0000 C   0  0  0  0  0  0  0  0  0  0  0  0
    5.0260    3.8971    0.0000 O   0  0  0  0  0  0  0  0  0  0  0  0
    2.7760    2.5981    0.0000 N   0  0  0  0  0  0  0  0  0  0  0  0
    3.5260    1.2990    0.0000 C   0  0  0  0  0  0  0  0  0  0  0  0
    5.0260    1.2990    0.0000 C   0  0  0  0  0  0  0  0  0  0  0  0
    5.7760    0.0000    0.0000 C   0  0  0  0  0  0  0  0  0  0  0  0
    7.2760    0.0000    0.0000 C   0  0  0  0  0  0  0  0  0  0  0  0
    5.0260   -1.2990    0.0000 C   0  0  0  0  0  0  0  0  0  0  0  0
    2.7760    0.0000    0.0000 C   0  0  0  0  0  0  0  0  0  0  0  0
    3.5260   -1.2990    0.0000 O   0  0  0  0  0  0  0  0  0  0  0  0
    1.2760    0.0000    0.0000 N   0  0  0  0  0  0  0  0  0  0  0  0
    0.3943    1.2135    0.0000 C   0  0  0  0  0  0  0  0  0  0  0  0
   -1.0323    0.7500    0.0000 C   0  0  0  0  0  0  0  0  0  0  0  0
   -1.0323   -0.7500    0.0000 C   0  0  0  0  0  0  0  0  0  0  0  0
    0.3943   -1.2135    0.0000 C   0  0  0  0  0  0  0  0  0  0  0  0
    0.8578   -2.6401    0.0000 C   0  0  0  0  0  0  0  0  0  0  0  0
    2.3250   -2.9520    0.0000 O   0  0  0  0  0  0  0  0  0  0  0  0
   -0.1459   -3.7548    0.0000 N   0  0  0  0  0  0  0  0  0  0  0  0
    0.3177   -5.1814    0.0000 C   0  0  0  0  0  0  0  0  0  0  0  0
   -0.6860   -6.2961    0.0000 C   0  0  0  0  0  0  0  0  0  0  0  0
   -0.2225   -7.7227    0.0000 C   0  0  0  0  0  0  0  0  0  0  0  0
    0.2410   -9.1493    0.0000 C   0  0  0  0  0  0  0  0  0  0  0  0
    1.7849   -5.4933    0.0000 C   0  0  0  0  0  0  0  0  0  0  0  0
    2.7886   -4.3786    0.0000 O   0  0  0  0  0  0  0  0  0  0  0  0
    2.2484   -6.9199    0.0000 O   0  0  0  0  0  0  0  0  0  0  0  0
  1  2  1  0
  2  3  1  0
  3  4  1  0
  4  5  1  0
  5  6  1  0
  6  7  1  0
  6  8  1  0
  1  9  1  0
  9 10  1  0
 10 11  2  0
 10 12  1  0
 12 13  1  0
 12 14  1  0
 14 15  1  1
 15 16  1  0
 16 17  1  0
 16 18  1  0
 14 19  1  0
 19 20  2  0
 19 21  1  0
 21 22  1  0
 22 23  1  1
 23 24  1  0
 24 25  1  0
 24 26  1  0
 22 27  1  0
 27 28  2  0
 27 29  1  0
 29 30  1  0
 30 31  1  0
 31 32  1  0
 32 33  1  0
 33 34  1  6
 34 35  2  0
 34 36  1  0
 36 37  1  0
 37 38  1  6
 38 39  1  0
 39 40  3  0
 37 41  1  0
 41 42  2  0
 41 43  1  0
 33 29  1  0
M  END
$$$$

     RDKit          2D

 45 46  0  0  0  0  0  0  0  0999 V2000
    0.7500   -6.4952    0.0000 N   0  0  0  0  0  0  0  0  0  0  0  0
    1.5000   -5.1962    0.0000 C   0  0  0  0  0  0  0  0  0  0  0  0
    0.7500   -3.8971    0.0000 C   0  0  0  0  0  0  0  0  0  0  0  0
    1.5000   -2.5981    0.0000 O   0  0  0  0  0  0  0  0  0  0  0  0
    0.7500   -1.2990    0.0000 C   0  0  0  0  0  0  0  0  0  0  0  0
    1.5000    0.0000    0.0000 C   0  0  0  0  0  0  0  0  0  0  0  0
    0.7500    1.2990    0.0000 C   0  0  0  0  0  0  0  0  0  0  0  0
   -0.7500    1.2990    0.0000 C   0  0  0  0  0  0  0  0  0  0  0  0
   -1.5000    0.0000    0.0000 C   0  0  0  0  0  0  0  0  0  0  0  0
   -0.7500   -1.2990    0.0000 C   0  0  0  0  0  0  0  0  0  0  0  0
    1.5000   -7.7942    0.0000 C   0  0  0  0  0  0  0  0  0  0  0  0
    0.7500   -9.0933    0.0000 C   0  0  0  0  0  0  0  0  0  0  0  0
   -0.7500   -9.0933    0.0000 O   0  0  0  0  0  0  0  0  0  0  0  0
    1.5000  -10.3923    0.0000 N   0  0  0  0  0  0  0  0  0  0  0  0
    0.7500  -11.6913    0.0000 C   0  0  0  0  0  0  0  0  0  0  0  0
    3.0000  -10.3923    0.0000 C   0  0  0  0  0  0  0  0  0  0  0  0
    3.7500  -11.6913    0.0000 C   0  0  0  0  0  0  0  0  0  0  0  0
    5.2500  -11.6913    0.0000 C   0  0  0  0  0  0  0  0  0  0  0  0
    6.0000  -12.9904    0.0000 C   0  0  0  0  0  0  0  0  0  0  0  0
    6.0000  -10.3923    0.0000 C   0  0  0  0  0  0  0  0  0  0  0  0
    3.7500   -9.0933    0.0000 C   0  0  0  0  0  0  0  0  0  0  0  0
    3.0000   -7.7942    0.0000 O   0  0  0  0  0  0  0  0  0  0  0  0
    5.2500   -9.0933    0.0000 N   0  0  0  0  0  0  0  0  0  0  0  0
    6.0000   -7.7942    0.0000 C   0  0  0  0  0  0  0  0  0  0  0  0
    7.5000   -7.7942    0.0000 C   0  0  0  0  0  0  0  0  0  0  0  0
    8.2500   -9.0933    0.0000 C   0  0  0  0  0  0  0  0  0  0  0  0
    9.7500   -9.0933    0.0000 C   0  0  0  0  0  0  0  0  0  0  0  0
    7.5000  -10.3923    0.0000 C   0  0  0  0  0  0  0  0  0  0  0  0
    5.2500   -6.4952    0.0000 C   0  0  0  0  0  0  0  0  0  0  0  0
    3.7500   -6.4952    0.0000 O   0  0  0  0  0  0  0  0  0  0  0  0
    6.0000   -5.1962    0.0000 N   0  0  0  0  0  0  0  0  0  0  0  0
    5.3899   -3.8258    0.0000 C   0  0  0  0  0  0  0  0  0  0  0  0
    6.5046   -2.8221    0.0000 C   0  0  0  0  0  0  0  0  0  0  0  0
    7.8037   -3.5721    0.0000 C   0  0  0  0  0  0  0  0  0  0  0  0
    7.4918   -5.0394    0.0000 C   0  0  0  0  0  0  0  0  0  0  0  0
    8.4955   -6.1541    0.0000 C   0  0  0  0  0  0  0  0  0  0  0  0
    8.3909   -7.6504    0.0000 O   0  0  0  0  0  0  0  0  0  0  0  0
    9.9627   -5.8422    0.0000 N   0  0  0  0  0  0  0  0  0  0  0  0
   10.9664   -6.9569    0.0000 C   0  0  0  0  0  0  0  0  0  0  0  0
   12.4336   -6.6451    0.0000 C   0  0  0  0  0  0  0  0  0  0  0  0
   13.4373   -7.7598    0.0000 C   0  0  0  0  0  0  0  0  0  0  0  0
   14.4410   -8.8745    0.0000 C   0  0  0  0  0  0  0  0  0  0  0  0
   10.5029   -8.3835    0.0000 C   0  0  0  0  0  0  0  0  0  0  0  0
    9.0356   -8.6954    0.0000 O   0  0  0  0  0  0  0  0  0  0  0  0
   11.5066   -9.4982    0.0000 O   0  0  0  0  0  0  0  0  0  0  0  0
  1  2  1  0
  2  3  1  0
  3  4  1  0
  4  5  1  0
  5  6  2  0
  6  7  1  0
  7  8  2  0
  8  9  1  0
  9 10  2  0
  1 11  1  0
 11 12  1  0
 12 13  2  0
 12 14  1  0
 14 15  1  0
 14 16  1  0
 16 17  1  6
 17 18  1  0
 18 19  1  0
 18 20  1  0
 16 21  1  0
 21 22  2  0
 21 23  1  0
 23 24  1  0
 24 25  1  6
 25 26  1  0
 26 27  1  0
 26 28  1  0
 24 29  1  0
 29 30  2  0
 29 31  1  0
 31 32  1  0
 32 33  1  0
 33 34  1  0
 34 35  1  0
 35 36  1  1
 36 37  2  0
 36 38  1  0
 38 39  1  0
 39 40  1  1
 40 41  1  0
 41 42  3  0
 39 43  1  0
 43 44  2  0
 43 45  1  0
 10  5  1  0
 35 31  1  0
M  END
$$$$

     RDKit          2D

 48 49  0  0  0  0  0  0  0  0999 V2000
    1.5000  -12.9904    0.0000 N   0  0  0  0  0  0  0  0  0  0  0  0
    0.7500  -14.2894    0.0000 C   0  0  0  0  0  0  0  0  0  0  0  0
    1.5000  -15.5885    0.0000 C   0  0  0  0  0  0  0  0  0  0  0  0
    0.7500  -16.8875    0.0000 C   0  0  0  0  0  0  0  0  0  0  0  0
    1.5000  -18.1865    0.0000 C   0  0  0  0  0  0  0  0  0  0  0  0
    0.7500  -19.4856    0.0000 C   0  0  0  0  0  0  0  0  0  0  0  0
   -0.7500  -19.4856    0.0000 C   0  0  0  0  0  0  0  0  0  0  0  0
   -1.5000  -18.1865    0.0000 C   0  0  0  0  0  0  0  0  0  0  0  0
   -3.0000  -18.1865    0.0000 O   0  0  0  0  0  0  0  0  0  0  0  0
   -3.7500  -16.8875    0.0000 C   0  0  0  0  0  0  0  0  0  0  0  0
   -0.7500  -16.8875    0.0000 C   0  0  0  0  0  0  0  0  0  0  0  0
   -1.5000  -20.7846    0.0000 O   0  0  0  0  0  0  0  0  0  0  0  0
   -0.7500  -22.0836    0.0000 C   0  0  0  0  0  0  0  0  0  0  0  0
    0.7500  -11.6913    0.0000 C   0  0  0  0  0  0  0  0  0  0  0  0
    1.5000  -10.3923    0.0000 C   0  0  0  0  0  0  0  0  0  0  0  0
    3.0000  -10.3923    0.0000 O   0  0  0  0  0  0  0  0  0  0  0  0
    0.7500   -9.0933    0.0000 N   0  0  0  0  0  0  0  0  0  0  0  0
    1.5000   -7.7942    0.0000 C   0  0  0  0  0  0  0  0  0  0  0  0
   -0.7500   -9.0933    0.0000 C   0  0  0  0  0  0  0  0  0  0  0  0
   -1.5000  -10.3923    0.0000 C   0  0  0  0  0  0  0  0  0  0  0  0
   -3.0000  -10.3923    0.0000 C   0  0  0  0  0  0  0  0  0  0  0  0
   -3.7500  -11.6913    0.0000 C   0  0  0  0  0  0  0  0  0  0  0  0
   -3.7500   -9.0933    0.0000 C   0  0  0  0  0  0  0  0  0  0  0  0
   -1.5000   -7.7942    0.0000 C   0  0  0  0  0  0  0  0  0  0  0  0
   -0.7500   -6.4952    0.0000 O   0  0  0  0  0  0  0  0  0  0  0  0
   -3.0000   -7.7942    0.0000 N   0  0  0  0  0  0  0  0  0  0  0  0
   -3.7500   -6.4952    0.0000 C   0  0  0  0  0  0  0  0  0  0  0  0
   -5.2500   -6.4952    0.0000 C   0  0  0  0  0  0  0  0  0  0  0  0
   -6.0000   -7.7942    0.0000 C   0  0  0  0  0  0  0  0  0  0  0  0
   -7.5000   -7.7942    0.0000 C   0  0  0  0  0  0  0  0  0  0  0  0
   -5.2500   -9.0933    0.0000 C   0  0  0  0  0  0  0  0  0  0  0  0
   -3.0000   -5.1962    0.0000 C   0  0  0  0  0  0  0  0  0  0  0  0
   -1.5000   -5.1962    0.0000 O   0  0  0  0  0  0  0  0  0  0  0  0
   -3.7500   -3.8971    0.0000 N   0  0  0  0  0  0  0  0  0  0  0  0
   -3.1399   -2.5268    0.0000 C   0  0  0  0  0  0  0  0  0  0  0  0
   -4.2546   -1.5231    0.0000 C   0  0  0  0  0  0  0  0  0  0  0  0
   -5.5537   -2.2731    0.0000 C   0  0  0  0  0  0  0  0  0  0  0  0
   -5.2418   -3.7403    0.0000 C   0  0  0  0  0  0  0  0  0  0  0  0
   -6.2455   -4.8550    0.0000 C   0  0  0  0  0  0  0  0  0  0  0  0
   -6.1409   -6.3514    0.0000 O   0  0  0  0  0  0  0  0  0  0  0  0
   -7.7127   -4.5432    0.0000 N   0  0  0  0  0  0  0  0  0  0  0  0
   -8.7164   -5.6579    0.0000 C   0  0  0  0  0  0  0  0  0  0  0  0
  -10.1836   -5.3460    0.0000 C   0  0  0  0  0  0  0  0  0  0  0  0
  -11.1873   -6.4607    0.0000 C   0  0  0  0  0  0  0  0  0  0  0  0
  -12.1910   -7.5755    0.0000 C   0  0  0  0  0  0  0  0  0  0  0  0
   -8.2529   -7.0845    0.0000 C   0  0  0  0  0  0  0  0  0  0  0  0
   -6.7856   -7.3963    0.0000 O   0  0  0  0  0  0  0  0  0  0  0  0
   -9.2566   -8.1992    0.0000 O   0  0  0  0  0  0  0  0  0  0  0  0
  1  2  1  0
  2  3  1  0
  3  4  1  0
  4  5  2  0
  5  6  1  0
  6  7  2  0
  7  8  1  0
  8  9  1  0
  9 10  1  0
  8 11  2  0
  7 12  1  0
 12 13  1  0
  1 14  1  0
 14 15  1  0
 15 16  2  0
 15 17  1  0
 17 18  1  0
 17 19  1  0
 19 20  1  1
 20 21  1  0
 21 22  1  0
 21 23  1  0
 19 24  1  0
 24 25  2  0
 24 26  1  0
 26 27  1  0
 27 28  1  1
 28 29  1  0
 29 30  1  0
 29 31  1  0
 27 32  1  0
 32 33  2  0
 32 34  1  0
 34 35  1  0
 35 36  1  0
 36 37  1  0
 37 38  1  0
 38 39  1  6
 39 40  2  0
 39 41  1  0
 41 42  1  0
 42 43  1  6
 43 44  1  0
 44 45  3  0
 42 46  1  0
 46 47  2  0
 46 48  1  0
 11  4  1  0
 38 34  1  0
M  END
$$$$

     RDKit          2D

 55 56  0  0  0  0  0  0  0  0999 V2000
   -2.4876  -12.5103    0.0000 N   0  0  0  0  0  0  0  0  0  0  0  0
   -1.1173  -13.1204    0.0000 C   0  0  0  0  0  0  0  0  0  0  0  0
   -0.9605  -14.6122    0.0000 C   0  0  0  0  0  0  0  0  0  0  0  0
   -2.1741  -15.4938    0.0000 C   0  0  0  0  0  0  0  0  0  0  0  0
   -2.0173  -16.9856    0.0000 C   0  0  0  0  0  0  0  0  0  0  0  0
   -3.5444  -14.8837    0.0000 C   0  0  0  0  0  0  0  0  0  0  0  0
    0.0962  -12.2387    0.0000 C   0  0  0  0  0  0  0  0  0  0  0  0
    1.4665  -12.8488    0.0000 O   0  0  0  0  0  0  0  0  0  0  0  0
   -0.0606  -10.7469    0.0000 N   0  0  0  0  0  0  0  0  0  0  0  0
    1.1529   -9.8652    0.0000 C   0  0  0  0  0  0  0  0  0  0  0  0
    2.5233  -10.4753    0.0000 C   0  0  0  0  0  0  0  0  0  0  0  0
    3.7368   -9.5937    0.0000 C   0  0  0  0  0  0  0  0  0  0  0  0
    3.5800   -8.1019    0.0000 C   0  0  0  0  0  0  0  0  0  0  0  0
    5.1071  -10.2038    0.0000 C   0  0  0  0  0  0  0  0  0  0  0  0
    0.9961   -8.3735    0.0000 C   0  0  0  0  0  0  0  0  0  0  0  0
    2.2097   -7.4918    0.0000 O   0  0  0  0  0  0  0  0  0  0  0  0
   -0.3742   -7.7634    0.0000 N   0  0  0  0  0  0  0  0  0  0  0  0
   -1.6732   -8.5134    0.0000 C   0  0  0  0  0  0  0  0  0  0  0  0
   -2.7879   -7.5097    0.0000 C   0  0  0  0  0  0  0  0  0  0  0  0
   -2.1778   -6.1393    0.0000 C   0  0  0  0  0  0  0  0  0  0  0  0
   -0.6860   -6.2961    0.0000 C   0  0  0  0  0  0  0  0  0  0  0  0
    0.3177   -5.1814    0.0000 C   0  0  0  0  0  0  0  0  0  0  0  0
    1.7849   -5.4933    0.0000 O   0  0  0  0  0  0  0  0  0  0  0  0
   -0.1459   -3.7548    0.0000 N   0  0  0  0  0  0  0  0  0  0  0  0
    0.8578   -2.6401    0.0000 C   0  0  0  0  0  0  0  0  0  0  0  0
   -1.6131   -3.4430    0.0000 C   0  0  0  0  0  0  0  0  0  0  0  0
   -2.6168   -4.5577    0.0000 C   0  0  0  0  0  0  0  0  0  0  0  0
   -4.0840   -4.2458    0.0000 C   0  0  0  0  0  0  0  0  0  0  0  0
   -5.0877   -5.3605    0.0000 C   0  0  0  0  0  0  0  0  0  0  0  0
   -4.5475   -2.8192    0.0000 C   0  0  0  0  0  0  0  0  0  0  0  0
   -2.0766   -2.0164    0.0000 C   0  0  0  0  0  0  0  0  0  0  0  0
   -3.5438   -1.7045    0.0000 O   0  0  0  0  0  0  0  0  0  0  0  0
   -1.0729   -0.9017    0.0000 N   0  0  0  0  0  0  0  0  0  0  0  0
   -1.5364    0.5249    0.0000 C   0  0  0  0  0  0  0  0  0  0  0  0
   -0.5328    1.6396    0.0000 C   0  0  0  0  0  0  0  0  0  0  0  0
    0.9345    1.3278    0.0000 C   0  0  0  0  0  0  0  0  0  0  0  0
    1.9382    2.4425    0.0000 C   0  0  0  0  0  0  0  0  0  0  0  0
    1.3980   -0.0988    0.0000 C   0  0  0  0  0  0  0  0  0  0  0  0
   -3.0037    0.8368    0.0000 C   0  0  0  0  0  0  0  0  0  0  0  0
   -4.0074   -0.2779    0.0000 O   0  0  0  0  0  0  0  0  0  0  0  0
   -3.4672    2.2634    0.0000 N   0  0  0  0  0  0  0  0  0  0  0  0
   -2.5855    3.4769    0.0000 C   0  0  0  0  0  0  0  0  0  0  0  0
   -3.4672    4.6904    0.0000 C   0  0  0  0  0  0  0  0  0  0  0  0
   -4.8938    4.2269    0.0000 C   0  0  0  0  0  0  0  0  0  0  0  0
   -4.8938    2.7269    0.0000 C   0  0  0  0  0  0  0  0  0  0  0  0
   -6.1073    1.8452    0.0000 C   0  0  0  0  0  0  0  0  0  0  0  0
   -5.9505    0.3534    0.0000 O   0  0  0  0  0  0  0  0  0  0  0  0
   -7.4776    2.4553    0.0000 N   0  0  0  0  0  0  0  0  0  0  0  0
   -8.6911    1.5737    0.0000 C   0  0  0  0  0  0  0  0  0  0  0  0
  -10.0615    2.1838    0.0000 C   0  0  0  0  0  0  0  0  0  0  0  0
  -11.2750    1.3021    0.0000 C   0  0  0  0  0  0  0  0  0  0  0  0
  -12.4885    0.4204    0.0000 C   0  0  0  0  0  0  0  0  0  0  0  0
   -8.5344    0.0819    0.0000 C   0  0  0  0  0  0  0  0  0  0  0  0
   -9.7479   -0.7998    0.0000 O   0  0  0  0  0  0  0  0  0  0  0  0
   -7.1640   -0.5282    0.0000 O   0  0  0  0  0  0  0  0  0  0  0  0
  2  1  1  6
  2  3  1  0
  3  4  1  0
  4  5  1  0
  4  6  1  0
  2  7  1  0
  7  8  2  0
  7  9  1  0
  9 10  1  0
 10 11  1  6
 11 12  1  0
 12 13  1  0
 12 14  1  0
 10 15  1  0
 15 16  2  0
 15 17  1  0
 17 18  1  0
 18 19  1  0
 19 20  1  0
 20 21  1  0
 21 22  1  1
 22 23  2  0
 22 24  1  0
 24 25  1  0
 24 26  1  0
 26 27  1  1
 27 28  1  0
 28 29  1  0
 28 30  1  0
 26 31  1  0
 31 32  2  0
 31 33  1  0
 33 34  1  0
 34 35  1  6
 35 36  1  0
 36 37  1  0
 36 38  1  0
 34 39  1  0
 39 40  2  0
 39 41  1  0
 41 42  1  0
 42 43  1  0
 43 44  1  0
 44 45  1  0
 45 46  1  6
 46 47  2  0
 46 48  1  0
 48 49  1  0
 49 50  1  6
 50 51  1  0
 51 52  3  0
 49 53  1  0
 53 54  2  0
 53 55  1  0
 45 41  1  0
 21 17  1  0
M  END
$$$$

     RDKit          2D

 55 56  0  0  0  0  0  0  0  0999 V2000
   -2.4876  -12.5103    0.0000 N   0  0  0  0  0  0  0  0  0  0  0  0
   -1.1173  -13.1204    0.0000 C   0  0  0  0  0  0  0  0  0  0  0  0
   -0.9605  -14.6122    0.0000 C   0  0  0  0  0  0  0  0  0  0  0  0
   -2.1741  -15.4938    0.0000 C   0  0  0  0  0  0  0  0  0  0  0  0
   -2.0173  -16.9856    0.0000 C   0  0  0  0  0  0  0  0  0  0  0  0
   -3.5444  -14.8837    0.0000 C   0  0  0  0  0  0  0  0  0  0  0  0
    0.0962  -12.2387    0.0000 C   0  0  0  0  0  0  0  0  0  0  0  0
    1.4665  -12.8488    0.0000 O   0  0  0  0  0  0  0  0  0  0  0  0
   -0.0606  -10.7469    0.0000 N   0  0  0  0  0  0  0  0  0  0  0  0
    1.1529   -9.8652    0.0000 C   0  0  0  0  0  0  0  0  0  0  0  0
    2.5233  -10.4753    0.0000 C   0  0  0  0  0  0  0  0  0  0  0  0
    3.7368   -9.5937    0.0000 C   0  0  0  0  0  0  0  0  0  0  0  0
    3.5800   -8.1019    0.0000 C   0  0  0  0  0  0  0  0  0  0  0  0
    5.1071  -10.2038    0.0000 C   0  0  0  0  0  0  0  0  0  0  0  0
    0.9961   -8.3735    0.0000 C   0  0  0  0  0  0  0  0  0  0  0  0
    2.2097   -7.4918    0.0000 O   0  0  0  0  0  0  0  0  0  0  0  0
   -0.3742   -7.7634    0.0000 N   0  0  0  0  0  0  0  0  0  0  0  0
   -1.6732   -8.5134    0.0000 C   0  0  0  0  0  0  0  0  0  0  0  0
   -2.7879   -7.5097    0.0000 C   0  0  0  0  0  0  0  0  0  0  0  0
   -2.1778   -6.1393    0.0000 C   0  0  0  0  0  0  0  0  0  0  0  0
   -0.6860   -6.2961    0.0000 C   0  0  0  0  0  0  0  0  0  0  0  0
    0.3177   -5.1814    0.0000 C   0  0  0  0  0  0  0  0  0  0  0  0
    1.7849   -5.4933    0.0000 O   0  0  0  0  0  0  0  0  0  0  0  0
   -0.1459   -3.7548    0.0000 N   0  0  0  0  0  0  0  0  0  0  0  0
    0.8578   -2.6401    0.0000 C   0  0  0  0  0  0  0  0  0  0  0  0
   -1.6131   -3.4430    0.0000 C   0  0  0  0  0  0  0  0  0  0  0  0
   -2.6168   -4.5577    0.0000 C   0  0  0  0  0  0  0  0  0  0  0  0
   -4.0840   -4.2458    0.0000 C   0  0  0  0  0  0  0  0  0  0  0  0
   -5.0877   -5.3605    0.0000 C   0  0  0  0  0  0  0  0  0  0  0  0
   -4.5475   -2.8192    0.0000 C   0  0  0  0  0  0  0  0  0  0  0  0
   -2.0766   -2.0164    0.0000 C   0  0  0  0  0  0  0  0  0  0  0  0
   -3.5438   -1.7045    0.0000 O   0  0  0  0  0  0  0  0  0  0  0  0
   -1.0729   -0.9017    0.0000 N   0  0  0  0  0  0  0  0  0  0  0  0
   -1.5364    0.5249    0.0000 C   0  0  0  0  0  0  0  0  0  0  0  0
   -0.5328    1.6396    0.0000 C   0  0  0  0  0  0  0  0  0  0  0  0
    0.9345    1.3278    0.0000 C   0  0  0  0  0  0  0  0  0  0  0  0
    1.9382    2.4425    0.0000 C   0  0  0  0  0  0  0  0  0  0  0  0
    1.3980   -0.0988    0.0000 C   0  0  0  0  0  0  0  0  0  0  0  0
   -3.0037    0.8368    0.0000 C   0  0  0  0  0  0  0  0  0  0  0  0
   -4.0074   -0.2779    0.0000 O   0  0  0  0  0  0  0  0  0  0  0  0
   -3.4672    2.2634    0.0000 N   0  0  0  0  0  0  0  0  0  0  0  0
   -2.5855    3.4769    0.0000 C   0  0  0  0  0  0  0  0  0  0  0  0
   -3.4672    4.6904    0.0000 C   0  0  0  0  0  0  0  0  0  0  0  0
   -4.8938    4.2269    0.0000 C   0  0  0  0  0  0  0  0  0  0  0  0
   -4.8938    2.7269    0.0000 C   0  0  0  0  0  0  0  0  0  0  0  0
   -6.1073    1.8452    0.0000 C   0  0  0  0  0  0  0  0  0  0  0  0
   -5.9505    0.3534    0.0000 O   0  0  0  0  0  0  0  0  0  0  0  0
   -7.4776    2.4553    0.0000 N   0  0  0  0  0  0  0  0  0  0  0  0
   -8.6911    1.5737    0.0000 C   0  0  0  0  0  0  0  0  0  0  0  0
  -10.0615    2.1838    0.0000 C   0  0  0  0  0  0  0  0  0  0  0  0
  -11.2750    1.3021    0.0000 C   0  0  0  0  0  0  0  0  0  0  0  0
  -12.4885    0.4204    0.0000 C   0  0  0  0  0  0  0  0  0  0  0  0
   -8.5344    0.0819    0.0000 C   0  0  0  0  0  0  0  0  0  0  0  0
   -9.7479   -0.7998    0.0000 O   0  0  0  0  0  0  0  0  0  0  0  0
   -7.1640   -0.5282    0.0000 O   0  0  0  0  0  0  0  0  0  0  0  0
  2  1  1  1
  2  3  1  0
  3  4  1  0
  4  5  1  0
  4  6  1  0
  2  7  1  0
  7  8  2  0
  7  9  1  0
  9 10  1  0
 10 11  1  6
 11 12  1  0
 12 13  1  0
 12 14  1  0
 10 15  1  0
 15 16  2  0
 15 17  1  0
 17 18  1  0
 18 19  1  0
 19 20  1  0
 20 21  1  0
 21 22  1  1
 22 23  2  0
 22 24  1  0
 24 25  1  0
 24 26  1  0
 26 27  1  1
 27 28  1  0
 28 29  1  0
 28 30  1  0
 26 31  1  0
 31 32  2  0
 31 33  1  0
 33 34  1  0
 34 35  1  6
 35 36  1  0
 36 37  1  0
 36 38  1  0
 34 39  1  0
 39 40  2  0
 39 41  1  0
 41 42  1  0
 42 43  1  0
 43 44  1  0
 44 45  1  0
 45 46  1  6
 46 47  2  0
 46 48  1  0
 48 49  1  0
 49 50  1  6
 50 51  1  0
 51 52  3  0
 49 53  1  0
 53 54  2  0
 53 55  1  0
 45 41  1  0
 21 17  1  0
M  END
$$$$

     RDKit          2D

 56 57  0  0  0  0  0  0  0  0999 V2000
   -2.4876  -12.5103    0.0000 N   0  0  0  0  0  0  0  0  0  0  0  0
   -3.7012  -13.3920    0.0000 C   0  0  0  0  0  0  0  0  0  0  0  0
   -1.1173  -13.1204    0.0000 C   0  0  0  0  0  0  0  0  0  0  0  0
   -0.9605  -14.6122    0.0000 C   0  0  0  0  0  0  0  0  0  0  0  0
   -2.1741  -15.4938    0.0000 C   0  0  0  0  0  0  0  0  0  0  0  0
   -2.0173  -16.9856    0.0000 C   0  0  0  0  0  0  0  0  0  0  0  0
   -3.5444  -14.8837    0.0000 C   0  0  0  0  0  0  0  0  0  0  0  0
    0.0962  -12.2387    0.0000 C   0  0  0  0  0  0  0  0  0  0  0  0
    1.4665  -12.8488    0.0000 O   0  0  0  0  0  0  0  0  0  0  0  0
   -0.0606  -10.7469    0.0000 N   0  0  0  0  0  0  0  0  0  0  0  0
    1.1529   -9.8652    0.0000 C   0  0  0  0  0  0  0  0  0  0  0  0
    2.5233  -10.4753    0.0000 C   0  0  0  0  0  0  0  0  0  0  0  0
    3.7368   -9.5937    0.0000 C   0  0  0  0  0  0  0  0  0  0  0  0
    5.1071  -10.2038    0.0000 C   0  0  0  0  0  0  0  0  0  0  0  0
    3.5800   -8.1019    0.0000 C   0  0  0  0  0  0  0  0  0  0  0  0
    0.9961   -8.3735    0.0000 C   0  0  0  0  0  0  0  0  0  0  0  0
    2.2097   -7.4918    0.0000 O   0  0  0  0  0  0  0  0  0  0  0  0
   -0.3742   -7.7634    0.0000 N   0  0  0  0  0  0  0  0  0  0  0  0
   -1.6732   -8.5134    0.0000 C   0  0  0  0  0  0  0  0  0  0  0  0
   -2.7879   -7.5097    0.0000 C   0  0  0  0  0  0  0  0  0  0  0  0
   -2.1778   -6.1393    0.0000 C   0  0  0  0  0  0  0  0  0  0  0  0
   -0.6860   -6.2961    0.0000 C   0  0  0  0  0  0  0  0  0  0  0  0
    0.3177   -5.1814    0.0000 C   0  0  0  0  0  0  0  0  0  0  0  0
    1.7849   -5.4933    0.0000 O   0  0  0  0  0  0  0  0  0  0  0  0
   -0.1459   -3.7548    0.0000 N   0  0  0  0  0  0  0  0  0  0  0  0
    0.8578   -2.6401    0.0000 C   0  0  0  0  0  0  0  0  0  0  0  0
   -1.6131   -3.4430    0.0000 C   0  0  0  0  0  0  0  0  0  0  0  0
   -2.6168   -4.5577    0.0000 C   0  0  0  0  0  0  0  0  0  0  0  0
   -4.0840   -4.2458    0.0000 C   0  0  0  0  0  0  0  0  0  0  0  0
   -5.0877   -5.3605    0.0000 C   0  0  0  0  0  0  0  0  0  0  0  0
   -4.5475   -2.8192    0.0000 C   0  0  0  0  0  0  0  0  0  0  0  0
   -2.0766   -2.0164    0.0000 C   0  0  0  0  0  0  0  0  0  0  0  0
   -3.5438   -1.7045    0.0000 O   0  0  0  0  0  0  0  0  0  0  0  0
   -1.0729   -0.9017    0.0000 N   0  0  0  0  0  0  0  0  0  0  0  0
   -1.5364    0.5249    0.0000 C   0  0  0  0  0  0  0  0  0  0  0  0
   -0.5328    1.6396    0.0000 C   0  0  0  0  0  0  0  0  0  0  0  0
    0.9345    1.3278    0.0000 C   0  0  0  0  0  0  0  0  0  0  0  0
    1.9382    2.4425    0.0000 C   0  0  0  0  0  0  0  0  0  0  0  0
    1.3980   -0.0988    0.0000 C   0  0  0  0  0  0  0  0  0  0  0  0
   -3.0037    0.8368    0.0000 C   0  0  0  0  0  0  0  0  0  0  0  0
   -4.0074   -0.2779    0.0000 O   0  0  0  0  0  0  0  0  0  0  0  0
   -3.4672    2.2634    0.0000 N   0  0  0  0  0  0  0  0  0  0  0  0
   -2.5855    3.4769    0.0000 C   0  0  0  0  0  0  0  0  0  0  0  0
   -3.4672    4.6904    0.0000 C   0  0  0  0  0  0  0  0  0  0  0  0
   -4.8938    4.2269    0.0000 C   0  0  0  0  0  0  0  0  0  0  0  0
   -4.8938    2.7269    0.0000 C   0  0  0  0  0  0  0  0  0  0  0  0
   -6.1073    1.8452    0.0000 C   0  0  0  0  0  0  0  0  0  0  0  0
   -5.9505    0.3534    0.0000 O   0  0  0  0  0  0  0  0  0  0  0  0
   -7.4776    2.4553    0.0000 N   0  0  0  0  0  0  0  0  0  0  0  0
   -8.6911    1.5737    0.0000 C   0  0  0  0  0  0  0  0  0  0  0  0
  -10.0615    2.1838    0.0000 C   0  0  0  0  0  0  0  0  0  0  0  0
  -11.2750    1.3021    0.0000 C   0  0  0  0  0  0  0  0  0  0  0  0
  -12.4885    0.4204    0.0000 C   0  0  0  0  0  0  0  0  0  0  0  0
   -8.5344    0.0819    0.0000 C   0  0  0  0  0  0  0  0  0  0  0  0
   -9.7479   -0.7998    0.0000 O   0  0  0  0  0  0  0  0  0  0  0  0
   -7.1640   -0.5282    0.0000 O   0  0  0  0  0  0  0  0  0  0  0  0
  1  2  1  0
  1  3  1  0
  3  4  1  6
  4  5  1  0
  5  6  1  0
  5  7  1  0
  3  8  1  0
  8  9  2  0
  8 10  1  0
 10 11  1  0
 11 12  1  6
 12 13  1  0
 13 14  1  0
 13 15  1  0
 11 16  1  0
 16 17  2  0
 16 18  1  0
 18 19  1  0
 19 20  1  0
 20 21  1  0
 21 22  1  0
 22 23  1  1
 23 24  2  0
 23 25  1  0
 25 26  1  0
 25 27  1  0
 27 28  1  1
 28 29  1  0
 29 30  1  0
 29 31  1  0
 27 32  1  0
 32 33  2  0
 32 34  1  0
 34 35  1  0
 35 36  1  6
 36 37  1  0
 37 38  1  0
 37 39  1  0
 35 40  1  0
 40 41  2  0
 40 42  1  0
 42 43  1  0
 43 44  1  0
 44 45  1  0
 45 46  1  0
 46 47  1  6
 47 48  2  0
 47 49  1  0
 49 50  1  0
 50 51  1  6
 51 52  1  0
 52 53  3  0
 50 54  1  0
 54 55  2  0
 54 56  1  0
 22 18  1  0
 46 42  1  0
M  END
$$$$

     RDKit          2D

 56 57  0  0  0  0  0  0  0  0999 V2000
   -2.4876  -12.5103    0.0000 N   0  0  0  0  0  0  0  0  0  0  0  0
   -3.7012  -13.3920    0.0000 C   0  0  0  0  0  0  0  0  0  0  0  0
   -1.1173  -13.1204    0.0000 C   0  0  0  0  0  0  0  0  0  0  0  0
   -0.9605  -14.6122    0.0000 C   0  0  0  0  0  0  0  0  0  0  0  0
   -2.1741  -15.4938    0.0000 C   0  0  0  0  0  0  0  0  0  0  0  0
   -2.0173  -16.9856    0.0000 C   0  0  0  0  0  0  0  0  0  0  0  0
   -3.5444  -14.8837    0.0000 C   0  0  0  0  0  0  0  0  0  0  0  0
    0.0962  -12.2387    0.0000 C   0  0  0  0  0  0  0  0  0  0  0  0
    1.4665  -12.8488    0.0000 O   0  0  0  0  0  0  0  0  0  0  0  0
   -0.0606  -10.7469    0.0000 N   0  0  0  0  0  0  0  0  0  0  0  0
    1.1529   -9.8652    0.0000 C   0  0  0  0  0  0  0  0  0  0  0  0
    2.5233  -10.4753    0.0000 C   0  0  0  0  0  0  0  0  0  0  0  0
    3.7368   -9.5937    0.0000 C   0  0  0  0  0  0  0  0  0  0  0  0
    5.1071  -10.2038    0.0000 C   0  0  0  0  0  0  0  0  0  0  0  0
    3.5800   -8.1019    0.0000 C   0  0  0  0  0  0  0  0  0  0  0  0
    0.9961   -8.3735    0.0000 C   0  0  0  0  0  0  0  0  0  0  0  0
    2.2097   -7.4918    0.0000 O   0  0  0  0  0  0  0  0  0  0  0  0
   -0.3742   -7.7634    0.0000 N   0  0  0  0  0  0  0  0  0  0  0  0
   -1.6732   -8.5134    0.0000 C   0  0  0  0  0  0  0  0  0  0  0  0
   -2.7879   -7.5097    0.0000 C   0  0  0  0  0  0  0  0  0  0  0  0
   -2.1778   -6.1393    0.0000 C   0  0  0  0  0  0  0  0  0  0  0  0
   -0.6860   -6.2961    0.0000 C   0  0  0  0  0  0  0  0  0  0  0  0
    0.3177   -5.1814    0.0000 C   0  0  0  0  0  0  0  0  0  0  0  0
    1.7849   -5.4933    0.0000 O   0  0  0  0  0  0  0  0  0  0  0  0
   -0.1459   -3.7548    0.0000 N   0  0  0  0  0  0  0  0  0  0  0  0
    0.8578   -2.6401    0.0000 C   0  0  0  0  0  0  0  0  0  0  0  0
   -1.6131   -3.4430    0.0000 C   0  0  0  0  0  0  0  0  0  0  0  0
   -2.6168   -4.5577    0.0000 C   0  0  0  0  0  0  0  0  0  0  0  0
   -4.0840   -4.2458    0.0000 C   0  0  0  0  0  0  0  0  0  0  0  0
   -5.0877   -5.3605    0.0000 C   0  0  0  0  0  0  0  0  0  0  0  0
   -4.5475   -2.8192    0.0000 C   0  0  0  0  0  0  0  0  0  0  0  0
   -2.0766   -2.0164    0.0000 C   0  0  0  0  0  0  0  0  0  0  0  0
   -3.5438   -1.7045    0.0000 O   0  0  0  0  0  0  0  0  0  0  0  0
   -1.0729   -0.9017    0.0000 N   0  0  0  0  0  0  0  0  0  0  0  0
   -1.5364    0.5249    0.0000 C   0  0  0  0  0  0  0  0  0  0  0  0
   -0.5328    1.6396    0.0000 C   0  0  0  0  0  0  0  0  0  0  0  0
    0.9345    1.3278    0.0000 C   0  0  0  0  0  0  0  0  0  0  0  0
    1.9382    2.4425    0.0000 C   0  0  0  0  0  0  0  0  0  0  0  0
    1.3980   -0.0988    0.0000 C   0  0  0  0  0  0  0  0  0  0  0  0
   -3.0037    0.8368    0.0000 C   0  0  0  0  0  0  0  0  0  0  0  0
   -4.0074   -0.2779    0.0000 O   0  0  0  0  0  0  0  0  0  0  0  0
   -3.4672    2.2634    0.0000 N   0  0  0  0  0  0  0  0  0  0  0  0
   -2.5855    3.4769    0.0000 C   0  0  0  0  0  0  0  0  0  0  0  0
   -3.4672    4.6904    0.0000 C   0  0  0  0  0  0  0  0  0  0  0  0
   -4.8938    4.2269    0.0000 C   0  0  0  0  0  0  0  0  0  0  0  0
   -4.8938    2.7269    0.0000 C   0  0  0  0  0  0  0  0  0  0  0  0
   -6.1073    1.8452    0.0000 C   0  0  0  0  0  0  0  0  0  0  0  0
   -5.9505    0.3534    0.0000 O   0  0  0  0  0  0  0  0  0  0  0  0
   -7.4776    2.4553    0.0000 N   0  0  0  0  0  0  0  0  0  0  0  0
   -8.6911    1.5737    0.0000 C   0  0  0  0  0  0  0  0  0  0  0  0
  -10.0615    2.1838    0.0000 C   0  0  0  0  0  0  0  0  0  0  0  0
  -11.2750    1.3021    0.0000 C   0  0  0  0  0  0  0  0  0  0  0  0
  -12.4885    0.4204    0.0000 C   0  0  0  0  0  0  0  0  0  0  0  0
   -8.5344    0.0819    0.0000 C   0  0  0  0  0  0  0  0  0  0  0  0
   -9.7479   -0.7998    0.0000 O   0  0  0  0  0  0  0  0  0  0  0  0
   -7.1640   -0.5282    0.0000 O   0  0  0  0  0  0  0  0  0  0  0  0
  1  2  1  0
  1  3  1  0
  3  4  1  1
  4  5  1  0
  5  6  1  0
  5  7  1  0
  3  8  1  0
  8  9  2  0
  8 10  1  0
 10 11  1  0
 11 12  1  6
 12 13  1  0
 13 14  1  0
 13 15  1  0
 11 16  1  0
 16 17  2  0
 16 18  1  0
 18 19  1  0
 19 20  1  0
 20 21  1  0
 21 22  1  0
 22 23  1  1
 23 24  2  0
 23 25  1  0
 25 26  1  0
 25 27  1  0
 27 28  1  1
 28 29  1  0
 29 30  1  0
 29 31  1  0
 27 32  1  0
 32 33  2  0
 32 34  1  0
 34 35  1  0
 35 36  1  6
 36 37  1  0
 37 38  1  0
 37 39  1  0
 35 40  1  0
 40 41  2  0
 40 42  1  0
 42 43  1  0
 43 44  1  0
 44 45  1  0
 45 46  1  0
 46 47  1  6
 47 48  2  0
 47 49  1  0
 49 50  1  0
 50 51  1  6
 51 52  1  0
 52 53  3  0
 50 54  1  0
 54 55  2  0
 54 56  1  0
 22 18  1  0
 46 42  1  0
M  END
$$$$

     RDKit          2D

 55 56  0  0  0  0  0  0  0  0999 V2000
   -2.4876  -12.5103    0.0000 N   0  0  0  0  0  0  0  0  0  0  0  0
   -1.1173  -13.1204    0.0000 C   0  0  0  0  0  0  0  0  0  0  0  0
   -0.9605  -14.6122    0.0000 C   0  0  0  0  0  0  0  0  0  0  0  0
   -2.1741  -15.4938    0.0000 C   0  0  0  0  0  0  0  0  0  0  0  0
   -2.0173  -16.9856    0.0000 C   0  0  0  0  0  0  0  0  0  0  0  0
   -3.5444  -14.8837    0.0000 C   0  0  0  0  0  0  0  0  0  0  0  0
    0.0962  -12.2387    0.0000 C   0  0  0  0  0  0  0  0  0  0  0  0
    1.4665  -12.8488    0.0000 O   0  0  0  0  0  0  0  0  0  0  0  0
   -0.0606  -10.7469    0.0000 N   0  0  0  0  0  0  0  0  0  0  0  0
    1.1529   -9.8652    0.0000 C   0  0  0  0  0  0  0  0  0  0  0  0
    2.5233  -10.4753    0.0000 C   0  0  0  0  0  0  0  0  0  0  0  0
    3.7368   -9.5937    0.0000 C   0  0  0  0  0  0  0  0  0  0  0  0
    3.5800   -8.1019    0.0000 C   0  0  0  0  0  0  0  0  0  0  0  0
    5.1071  -10.2038    0.0000 C   0  0  0  0  0  0  0  0  0  0  0  0
    0.9961   -8.3735    0.0000 C   0  0  0  0  0  0  0  0  0  0  0  0
    2.2097   -7.4918    0.0000 O   0  0  0  0  0  0  0  0  0  0  0  0
   -0.3742   -7.7634    0.0000 N   0  0  0  0  0  0  0  0  0  0  0  0
   -1.6732   -8.5134    0.0000 C   0  0  0  0  0  0  0  0  0  0  0  0
   -2.7879   -7.5097    0.0000 C   0  0  0  0  0  0  0  0  0  0  0  0
   -2.1778   -6.1393    0.0000 C   0  0  0  0  0  0  0  0  0  0  0  0
   -0.6860   -6.2961    0.0000 C   0  0  0  0  0  0  0  0  0  0  0  0
    0.3177   -5.1814    0.0000 C   0  0  0  0  0  0  0  0  0  0  0  0
    1.7849   -5.4933    0.0000 O   0  0  0  0  0  0  0  0  0  0  0  0
   -0.1459   -3.7548    0.0000 N   0  0  0  0  0  0  0  0  0  0  0  0
    0.8578   -2.6401    0.0000 C   0  0  0  0  0  0  0  0  0  0  0  0
   -1.6131   -3.4430    0.0000 C   0  0  0  0  0  0  0  0  0  0  0  0
   -2.6168   -4.5577    0.0000 C   0  0  0  0  0  0  0  0  0  0  0  0
   -4.0840   -4.2458    0.0000 C   0  0  0  0  0  0  0  0  0  0  0  0
   -5.0877   -5.3605    0.0000 C   0  0  0  0  0  0  0  0  0  0  0  0
   -4.5475   -2.8192    0.0000 C   0  0  0  0  0  0  0  0  0  0  0  0
   -2.0766   -2.0164    0.0000 C   0  0  0  0  0  0  0  0  0  0  0  0
   -3.5438   -1.7045    0.0000 O   0  0  0  0  0  0  0  0  0  0  0  0
   -1.0729   -0.9017    0.0000 N   0  0  0  0  0  0  0  0  0  0  0  0
   -1.5364    0.5249    0.0000 C   0  0  0  0  0  0  0  0  0  0  0  0
   -0.5328    1.6396    0.0000 C   0  0  0  0  0  0  0  0  0  0  0  0
    0.9345    1.3278    0.0000 C   0  0  0  0  0  0  0  0  0  0  0  0
    1.9382    2.4425    0.0000 C   0  0  0  0  0  0  0  0  0  0  0  0
    1.3980   -0.0988    0.0000 C   0  0  0  0  0  0  0  0  0  0  0  0
   -3.0037    0.8368    0.0000 C   0  0  0  0  0  0  0  0  0  0  0  0
   -4.0074   -0.2779    0.0000 O   0  0  0  0  0  0  0  0  0  0  0  0
   -3.4672    2.2634    0.0000 N   0  0  0  0  0  0  0  0  0  0  0  0
   -2.5855    3.4769    0.0000 C   0  0  0  0  0  0  0  0  0  0  0  0
   -3.4672    4.6904    0.0000 C   0  0  0  0  0  0  0  0  0  0  0  0
   -4.8938    4.2269    0.0000 C   0  0  0  0  0  0  0  0  0  0  0  0
   -4.8938    2.7269    0.0000 C   0  0  0  0  0  0  0  0  0  0  0  0
   -6.1073    1.8452    0.0000 C   0  0  0  0  0  0  0  0  0  0  0  0
   -5.9505    0.3534    0.0000 O   0  0  0  0  0  0  0  0  0  0  0  0
   -7.4776    2.4553    0.0000 N   0  0  0  0  0  0  0  0  0  0  0  0
   -8.6911    1.5737    0.0000 C   0  0  0  0  0  0  0  0  0  0  0  0
  -10.0615    2.1838    0.0000 C   0  0  0  0  0  0  0  0  0  0  0  0
  -11.2750    1.3021    0.0000 C   0  0  0  0  0  0  0  0  0  0  0  0
  -12.4885    0.4204    0.0000 C   0  0  0  0  0  0  0  0  0  0  0  0
   -8.5344    0.0819    0.0000 C   0  0  0  0  0  0  0  0  0  0  0  0
   -9.7479   -0.7998    0.0000 O   0  0  0  0  0  0  0  0  0  0  0  0
   -7.1640   -0.5282    0.0000 O   0  0  0  0  0  0  0  0  0  0  0  0
  2  1  1  6
  2  3  1  0
  3  4  1  0
  4  5  1  0
  4  6  1  0
  2  7  1  0
  7  8  2  0
  7  9  1  0
  9 10  1  0
 10 11  1  1
 11 12  1  0
 12 13  1  0
 12 14  1  0
 10 15  1  0
 15 16  2  0
 15 17  1  0
 17 18  1  0
 18 19  1  0
 19 20  1  0
 20 21  1  0
 21 22  1  1
 22 23  2  0
 22 24  1  0
 24 25  1  0
 24 26  1  0
 26 27  1  1
 27 28  1  0
 28 29  1  0
 28 30  1  0
 26 31  1  0
 31 32  2  0
 31 33  1  0
 33 34  1  0
 34 35  1  6
 35 36  1  0
 36 37  1  0
 36 38  1  0
 34 39  1  0
 39 40  2  0
 39 41  1  0
 41 42  1  0
 42 43  1  0
 43 44  1  0
 44 45  1  0
 45 46  1  6
 46 47  2  0
 46 48  1  0
 48 49  1  0
 49 50  1  6
 50 51  1  0
 51 52  3  0
 49 53  1  0
 53 54  2  0
 53 55  1  0
 21 17  1  0
 45 41  1  0
M  END
$$$$

     RDKit          2D

 55 56  0  0  0  0  0  0  0  0999 V2000
   -2.4876  -12.5103    0.0000 N   0  0  0  0  0  0  0  0  0  0  0  0
   -1.1173  -13.1204    0.0000 C   0  0  0  0  0  0  0  0  0  0  0  0
   -0.9605  -14.6122    0.0000 C   0  0  0  0  0  0  0  0  0  0  0  0
   -2.1741  -15.4938    0.0000 C   0  0  0  0  0  0  0  0  0  0  0  0
   -2.0173  -16.9856    0.0000 C   0  0  0  0  0  0  0  0  0  0  0  0
   -3.5444  -14.8837    0.0000 C   0  0  0  0  0  0  0  0  0  0  0  0
    0.0962  -12.2387    0.0000 C   0  0  0  0  0  0  0  0  0  0  0  0
    1.4665  -12.8488    0.0000 O   0  0  0  0  0  0  0  0  0  0  0  0
   -0.0606  -10.7469    0.0000 N   0  0  0  0  0  0  0  0  0  0  0  0
    1.1529   -9.8652    0.0000 C   0  0  0  0  0  0  0  0  0  0  0  0
    2.5233  -10.4753    0.0000 C   0  0  0  0  0  0  0  0  0  0  0  0
    3.7368   -9.5937    0.0000 C   0  0  0  0  0  0  0  0  0  0  0  0
    3.5800   -8.1019    0.0000 C   0  0  0  0  0  0  0  0  0  0  0  0
    5.1071  -10.2038    0.0000 C   0  0  0  0  0  0  0  0  0  0  0  0
    0.9961   -8.3735    0.0000 C   0  0  0  0  0  0  0  0  0  0  0  0
    2.2097   -7.4918    0.0000 O   0  0  0  0  0  0  0  0  0  0  0  0
   -0.3742   -7.7634    0.0000 N   0  0  0  0  0  0  0  0  0  0  0  0
   -1.6732   -8.5134    0.0000 C   0  0  0  0  0  0  0  0  0  0  0  0
   -2.7879   -7.5097    0.0000 C   0  0  0  0  0  0  0  0  0  0  0  0
   -2.1778   -6.1393    0.0000 C   0  0  0  0  0  0  0  0  0  0  0  0
   -0.6860   -6.2961    0.0000 C   0  0  0  0  0  0  0  0  0  0  0  0
    0.3177   -5.1814    0.0000 C   0  0  0  0  0  0  0  0  0  0  0  0
    1.7849   -5.4933    0.0000 O   0  0  0  0  0  0  0  0  0  0  0  0
   -0.1459   -3.7548    0.0000 N   0  0  0  0  0  0  0  0  0  0  0  0
    0.8578   -2.6401    0.0000 C   0  0  0  0  0  0  0  0  0  0  0  0
   -1.6131   -3.4430    0.0000 C   0  0  0  0  0  0  0  0  0  0  0  0
   -2.6168   -4.5577    0.0000 C   0  0  0  0  0  0  0  0  0  0  0  0
   -4.0840   -4.2458    0.0000 C   0  0  0  0  0  0  0  0  0  0  0  0
   -5.0877   -5.3605    0.0000 C   0  0  0  0  0  0  0  0  0  0  0  0
   -4.5475   -2.8192    0.0000 C   0  0  0  0  0  0  0  0  0  0  0  0
   -2.0766   -2.0164    0.0000 C   0  0  0  0  0  0  0  0  0  0  0  0
   -3.5438   -1.7045    0.0000 O   0  0  0  0  0  0  0  0  0  0  0  0
   -1.0729   -0.9017    0.0000 N   0  0  0  0  0  0  0  0  0  0  0  0
   -1.5364    0.5249    0.0000 C   0  0  0  0  0  0  0  0  0  0  0  0
   -0.5328    1.6396    0.0000 C   0  0  0  0  0  0  0  0  0  0  0  0
    0.9345    1.3278    0.0000 C   0  0  0  0  0  0  0  0  0  0  0  0
    1.9382    2.4425    0.0000 C   0  0  0  0  0  0  0  0  0  0  0  0
    1.3980   -0.0988    0.0000 C   0  0  0  0  0  0  0  0  0  0  0  0
   -3.0037    0.8368    0.0000 C   0  0  0  0  0  0  0  0  0  0  0  0
   -4.0074   -0.2779    0.0000 O   0  0  0  0  0  0  0  0  0  0  0  0
   -3.4672    2.2634    0.0000 N   0  0  0  0  0  0  0  0  0  0  0  0
   -2.5855    3.4769    0.0000 C   0  0  0  0  0  0  0  0  0  0  0  0
   -3.4672    4.6904    0.0000 C   0  0  0  0  0  0  0  0  0  0  0  0
   -4.8938    4.2269    0.0000 C   0  0  0  0  0  0  0  0  0  0  0  0
   -4.8938    2.7269    0.0000 C   0  0  0  0  0  0  0  0  0  0  0  0
   -6.1073    1.8452    0.0000 C   0  0  0  0  0  0  0  0  0  0  0  0
   -5.9505    0.3534    0.0000 O   0  0  0  0  0  0  0  0  0  0  0  0
   -7.4776    2.4553    0.0000 N   0  0  0  0  0  0  0  0  0  0  0  0
   -8.6911    1.5737    0.0000 C   0  0  0  0  0  0  0  0  0  0  0  0
  -10.0615    2.1838    0.0000 C   0  0  0  0  0  0  0  0  0  0  0  0
  -11.2750    1.3021    0.0000 C   0  0  0  0  0  0  0  0  0  0  0  0
  -12.4885    0.4204    0.0000 C   0  0  0  0  0  0  0  0  0  0  0  0
   -8.5344    0.0819    0.0000 C   0  0  0  0  0  0  0  0  0  0  0  0
   -9.7479   -0.7998    0.0000 O   0  0  0  0  0  0  0  0  0  0  0  0
   -7.1640   -0.5282    0.0000 O   0  0  0  0  0  0  0  0  0  0  0  0
  2  1  1  1
  2  3  1  0
  3  4  1  0
  4  5  1  0
  4  6  1  0
  2  7  1  0
  7  8  2  0
  7  9  1  0
  9 10  1  0
 10 11  1  1
 11 12  1  0
 12 13  1  0
 12 14  1  0
 10 15  1  0
 15 16  2  0
 15 17  1  0
 17 18  1  0
 18 19  1  0
 19 20  1  0
 20 21  1  0
 21 22  1  1
 22 23  2  0
 22 24  1  0
 24 25  1  0
 24 26  1  0
 26 27  1  1
 27 28  1  0
 28 29  1  0
 28 30  1  0
 26 31  1  0
 31 32  2  0
 31 33  1  0
 33 34  1  0
 34 35  1  6
 35 36  1  0
 36 37  1  0
 36 38  1  0
 34 39  1  0
 39 40  2  0
 39 41  1  0
 41 42  1  0
 42 43  1  0
 43 44  1  0
 44 45  1  0
 45 46  1  6
 46 47  2  0
 46 48  1  0
 48 49  1  0
 49 50  1  6
 50 51  1  0
 51 52  3  0
 49 53  1  0
 53 54  2  0
 53 55  1  0
 21 17  1  0
 45 41  1  0
M  END
$$$$

     RDKit          2D

 56 57  0  0  0  0  0  0  0  0999 V2000
   -2.4876  -12.5103    0.0000 N   0  0  0  0  0  0  0  0  0  0  0  0
   -3.7012  -13.3920    0.0000 C   0  0  0  0  0  0  0  0  0  0  0  0
   -1.1173  -13.1204    0.0000 C   0  0  0  0  0  0  0  0  0  0  0  0
   -0.9605  -14.6122    0.0000 C   0  0  0  0  0  0  0  0  0  0  0  0
   -2.1741  -15.4938    0.0000 C   0  0  0  0  0  0  0  0  0  0  0  0
   -2.0173  -16.9856    0.0000 C   0  0  0  0  0  0  0  0  0  0  0  0
   -3.5444  -14.8837    0.0000 C   0  0  0  0  0  0  0  0  0  0  0  0
    0.0962  -12.2387    0.0000 C   0  0  0  0  0  0  0  0  0  0  0  0
    1.4665  -12.8488    0.0000 O   0  0  0  0  0  0  0  0  0  0  0  0
   -0.0606  -10.7469    0.0000 N   0  0  0  0  0  0  0  0  0  0  0  0
    1.1529   -9.8652    0.0000 C   0  0  0  0  0  0  0  0  0  0  0  0
    2.5233  -10.4753    0.0000 C   0  0  0  0  0  0  0  0  0  0  0  0
    3.7368   -9.5937    0.0000 C   0  0  0  0  0  0  0  0  0  0  0  0
    5.1071  -10.2038    0.0000 C   0  0  0  0  0  0  0  0  0  0  0  0
    3.5800   -8.1019    0.0000 C   0  0  0  0  0  0  0  0  0  0  0  0
    0.9961   -8.3735    0.0000 C   0  0  0  0  0  0  0  0  0  0  0  0
    2.2097   -7.4918    0.0000 O   0  0  0  0  0  0  0  0  0  0  0  0
   -0.3742   -7.7634    0.0000 N   0  0  0  0  0  0  0  0  0  0  0  0
   -1.6732   -8.5134    0.0000 C   0  0  0  0  0  0  0  0  0  0  0  0
   -2.7879   -7.5097    0.0000 C   0  0  0  0  0  0  0  0  0  0  0  0
   -2.1778   -6.1393    0.0000 C   0  0  0  0  0  0  0  0  0  0  0  0
   -0.6860   -6.2961    0.0000 C   0  0  0  0  0  0  0  0  0  0  0  0
    0.3177   -5.1814    0.0000 C   0  0  0  0  0  0  0  0  0  0  0  0
    1.7849   -5.4933    0.0000 O   0  0  0  0  0  0  0  0  0  0  0  0
   -0.1459   -3.7548    0.0000 N   0  0  0  0  0  0  0  0  0  0  0  0
    0.8578   -2.6401    0.0000 C   0  0  0  0  0  0  0  0  0  0  0  0
   -1.6131   -3.4430    0.0000 C   0  0  0  0  0  0  0  0  0  0  0  0
   -2.6168   -4.5577    0.0000 C   0  0  0  0  0  0  0  0  0  0  0  0
   -4.0840   -4.2458    0.0000 C   0  0  0  0  0  0  0  0  0  0  0  0
   -5.0877   -5.3605    0.0000 C   0  0  0  0  0  0  0  0  0  0  0  0
   -4.5475   -2.8192    0.0000 C   0  0  0  0  0  0  0  0  0  0  0  0
   -2.0766   -2.0164    0.0000 C   0  0  0  0  0  0  0  0  0  0  0  0
   -3.5438   -1.7045    0.0000 O   0  0  0  0  0  0  0  0  0  0  0  0
   -1.0729   -0.9017    0.0000 N   0  0  0  0  0  0  0  0  0  0  0  0
   -1.5364    0.5249    0.0000 C   0  0  0  0  0  0  0  0  0  0  0  0
   -0.5328    1.6396    0.0000 C   0  0  0  0  0  0  0  0  0  0  0  0
    0.9345    1.3278    0.0000 C   0  0  0  0  0  0  0  0  0  0  0  0
    1.9382    2.4425    0.0000 C   0  0  0  0  0  0  0  0  0  0  0  0
    1.3980   -0.0988    0.0000 C   0  0  0  0  0  0  0  0  0  0  0  0
   -3.0037    0.8368    0.0000 C   0  0  0  0  0  0  0  0  0  0  0  0
   -4.0074   -0.2779    0.0000 O   0  0  0  0  0  0  0  0  0  0  0  0
   -3.4672    2.2634    0.0000 N   0  0  0  0  0  0  0  0  0  0  0  0
   -2.5855    3.4769    0.0000 C   0  0  0  0  0  0  0  0  0  0  0  0
   -3.4672    4.6904    0.0000 C   0  0  0  0  0  0  0  0  0  0  0  0
   -4.8938    4.2269    0.0000 C   0  0  0  0  0  0  0  0  0  0  0  0
   -4.8938    2.7269    0.0000 C   0  0  0  0  0  0  0  0  0  0  0  0
   -6.1073    1.8452    0.0000 C   0  0  0  0  0  0  0  0  0  0  0  0
   -5.9505    0.3534    0.0000 O   0  0  0  0  0  0  0  0  0  0  0  0
   -7.4776    2.4553    0.0000 N   0  0  0  0  0  0  0  0  0  0  0  0
   -8.6911    1.5737    0.0000 C   0  0  0  0  0  0  0  0  0  0  0  0
  -10.0615    2.1838    0.0000 C   0  0  0  0  0  0  0  0  0  0  0  0
  -11.2750    1.3021    0.0000 C   0  0  0  0  0  0  0  0  0  0  0  0
  -12.4885    0.4204    0.0000 C   0  0  0  0  0  0  0  0  0  0  0  0
   -8.5344    0.0819    0.0000 C   0  0  0  0  0  0  0  0  0  0  0  0
   -9.7479   -0.7998    0.0000 O   0  0  0  0  0  0  0  0  0  0  0  0
   -7.1640   -0.5282    0.0000 O   0  0  0  0  0  0  0  0  0  0  0  0
  1  2  1  0
  1  3  1  0
  3  4  1  6
  4  5  1  0
  5  6  1  0
  5  7  1  0
  3  8  1  0
  8  9  2  0
  8 10  1  0
 10 11  1  0
 11 12  1  1
 12 13  1  0
 13 14  1  0
 13 15  1  0
 11 16  1  0
 16 17  2  0
 16 18  1  0
 18 19  1  0
 19 20  1  0
 20 21  1  0
 21 22  1  0
 22 23  1  1
 23 24  2  0
 23 25  1  0
 25 26  1  0
 25 27  1  0
 27 28  1  1
 28 29  1  0
 29 30  1  0
 29 31  1  0
 27 32  1  0
 32 33  2  0
 32 34  1  0
 34 35  1  0
 35 36  1  6
 36 37  1  0
 37 38  1  0
 37 39  1  0
 35 40  1  0
 40 41  2  0
 40 42  1  0
 42 43  1  0
 43 44  1  0
 44 45  1  0
 45 46  1  0
 46 47  1  6
 47 48  2  0
 47 49  1  0
 49 50  1  0
 50 51  1  6
 51 52  1  0
 52 53  3  0
 50 54  1  0
 54 55  2  0
 54 56  1  0
 22 18  1  0
 46 42  1  0
M  END
$$$$

     RDKit          2D

 56 57  0  0  0  0  0  0  0  0999 V2000
   -2.4876  -12.5103    0.0000 N   0  0  0  0  0  0  0  0  0  0  0  0
   -3.7012  -13.3920    0.0000 C   0  0  0  0  0  0  0  0  0  0  0  0
   -1.1173  -13.1204    0.0000 C   0  0  0  0  0  0  0  0  0  0  0  0
   -0.9605  -14.6122    0.0000 C   0  0  0  0  0  0  0  0  0  0  0  0
   -2.1741  -15.4938    0.0000 C   0  0  0  0  0  0  0  0  0  0  0  0
   -2.0173  -16.9856    0.0000 C   0  0  0  0  0  0  0  0  0  0  0  0
   -3.5444  -14.8837    0.0000 C   0  0  0  0  0  0  0  0  0  0  0  0
    0.0962  -12.2387    0.0000 C   0  0  0  0  0  0  0  0  0  0  0  0
    1.4665  -12.8488    0.0000 O   0  0  0  0  0  0  0  0  0  0  0  0
   -0.0606  -10.7469    0.0000 N   0  0  0  0  0  0  0  0  0  0  0  0
    1.1529   -9.8652    0.0000 C   0  0  0  0  0  0  0  0  0  0  0  0
    2.5233  -10.4753    0.0000 C   0  0  0  0  0  0  0  0  0  0  0  0
    3.7368   -9.5937    0.0000 C   0  0  0  0  0  0  0  0  0  0  0  0
    5.1071  -10.2038    0.0000 C   0  0  0  0  0  0  0  0  0  0  0  0
    3.5800   -8.1019    0.0000 C   0  0  0  0  0  0  0  0  0  0  0  0
    0.9961   -8.3735    0.0000 C   0  0  0  0  0  0  0  0  0  0  0  0
    2.2097   -7.4918    0.0000 O   0  0  0  0  0  0  0  0  0  0  0  0
   -0.3742   -7.7634    0.0000 N   0  0  0  0  0  0  0  0  0  0  0  0
   -1.6732   -8.5134    0.0000 C   0  0  0  0  0  0  0  0  0  0  0  0
   -2.7879   -7.5097    0.0000 C   0  0  0  0  0  0  0  0  0  0  0  0
   -2.1778   -6.1393    0.0000 C   0  0  0  0  0  0  0  0  0  0  0  0
   -0.6860   -6.2961    0.0000 C   0  0  0  0  0  0  0  0  0  0  0  0
    0.3177   -5.1814    0.0000 C   0  0  0  0  0  0  0  0  0  0  0  0
    1.7849   -5.4933    0.0000 O   0  0  0  0  0  0  0  0  0  0  0  0
   -0.1459   -3.7548    0.0000 N   0  0  0  0  0  0  0  0  0  0  0  0
    0.8578   -2.6401    0.0000 C   0  0  0  0  0  0  0  0  0  0  0  0
   -1.6131   -3.4430    0.0000 C   0  0  0  0  0  0  0  0  0  0  0  0
   -2.6168   -4.5577    0.0000 C   0  0  0  0  0  0  0  0  0  0  0  0
   -4.0840   -4.2458    0.0000 C   0  0  0  0  0  0  0  0  0  0  0  0
   -5.0877   -5.3605    0.0000 C   0  0  0  0  0  0  0  0  0  0  0  0
   -4.5475   -2.8192    0.0000 C   0  0  0  0  0  0  0  0  0  0  0  0
   -2.0766   -2.0164    0.0000 C   0  0  0  0  0  0  0  0  0  0  0  0
   -3.5438   -1.7045    0.0000 O   0  0  0  0  0  0  0  0  0  0  0  0
   -1.0729   -0.9017    0.0000 N   0  0  0  0  0  0  0  0  0  0  0  0
   -1.5364    0.5249    0.0000 C   0  0  0  0  0  0  0  0  0  0  0  0
   -0.5328    1.6396    0.0000 C   0  0  0  0  0  0  0  0  0  0  0  0
    0.9345    1.3278    0.0000 C   0  0  0  0  0  0  0  0  0  0  0  0
    1.9382    2.4425    0.0000 C   0  0  0  0  0  0  0  0  0  0  0  0
    1.3980   -0.0988    0.0000 C   0  0  0  0  0  0  0  0  0  0  0  0
   -3.0037    0.8368    0.0000 C   0  0  0  0  0  0  0  0  0  0  0  0
   -4.0074   -0.2779    0.0000 O   0  0  0  0  0  0  0  0  0  0  0  0
   -3.4672    2.2634    0.0000 N   0  0  0  0  0  0  0  0  0  0  0  0
   -2.5855    3.4769    0.0000 C   0  0  0  0  0  0  0  0  0  0  0  0
   -3.4672    4.6904    0.0000 C   0  0  0  0  0  0  0  0  0  0  0  0
   -4.8938    4.2269    0.0000 C   0  0  0  0  0  0  0  0  0  0  0  0
   -4.8938    2.7269    0.0000 C   0  0  0  0  0  0  0  0  0  0  0  0
   -6.1073    1.8452    0.0000 C   0  0  0  0  0  0  0  0  0  0  0  0
   -5.9505    0.3534    0.0000 O   0  0  0  0  0  0  0  0  0  0  0  0
   -7.4776    2.4553    0.0000 N   0  0  0  0  0  0  0  0  0  0  0  0
   -8.6911    1.5737    0.0000 C   0  0  0  0  0  0  0  0  0  0  0  0
  -10.0615    2.1838    0.0000 C   0  0  0  0  0  0  0  0  0  0  0  0
  -11.2750    1.3021    0.0000 C   0  0  0  0  0  0  0  0  0  0  0  0
  -12.4885    0.4204    0.0000 C   0  0  0  0  0  0  0  0  0  0  0  0
   -8.5344    0.0819    0.0000 C   0  0  0  0  0  0  0  0  0  0  0  0
   -9.7479   -0.7998    0.0000 O   0  0  0  0  0  0  0  0  0  0  0  0
   -7.1640   -0.5282    0.0000 O   0  0  0  0  0  0  0  0  0  0  0  0
  1  2  1  0
  1  3  1  0
  3  4  1  1
  4  5  1  0
  5  6  1  0
  5  7  1  0
  3  8  1  0
  8  9  2  0
  8 10  1  0
 10 11  1  0
 11 12  1  1
 12 13  1  0
 13 14  1  0
 13 15  1  0
 11 16  1  0
 16 17  2  0
 16 18  1  0
 18 19  1  0
 19 20  1  0
 20 21  1  0
 21 22  1  0
 22 23  1  1
 23 24  2  0
 23 25  1  0
 25 26  1  0
 25 27  1  0
 27 28  1  1
 28 29  1  0
 29 30  1  0
 29 31  1  0
 27 32  1  0
 32 33  2  0
 32 34  1  0
 34 35  1  0
 35 36  1  6
 36 37  1  0
 37 38  1  0
 37 39  1  0
 35 40  1  0
 40 41  2  0
 40 42  1  0
 42 43  1  0
 43 44  1  0
 44 45  1  0
 45 46  1  0
 46 47  1  6
 47 48  2  0
 47 49  1  0
 49 50  1  0
 50 51  1  6
 51 52  1  0
 52 53  3  0
 50 54  1  0
 54 55  2  0
 54 56  1  0
 22 18  1  0
 46 42  1  0
M  END
$$$$

     RDKit          2D

 56 57  0  0  0  0  0  0  0  0999 V2000
    8.0260   -1.2990    0.0000 N   0  0  0  0  0  0  0  0  0  0  0  0
    7.2760   -0.0000    0.0000 C   0  0  0  0  0  0  0  0  0  0  0  0
    8.0260    1.2990    0.0000 C   0  0  0  0  0  0  0  0  0  0  0  0
    9.5260    1.2990    0.0000 C   0  0  0  0  0  0  0  0  0  0  0  0
   10.2760    2.5981    0.0000 C   0  0  0  0  0  0  0  0  0  0  0  0
   10.2760    0.0000    0.0000 C   0  0  0  0  0  0  0  0  0  0  0  0
    5.7760   -0.0000    0.0000 C   0  0  0  0  0  0  0  0  0  0  0  0
    5.0260    1.2990    0.0000 O   0  0  0  0  0  0  0  0  0  0  0  0
    5.0260   -1.2990    0.0000 N   0  0  0  0  0  0  0  0  0  0  0  0
    5.7760   -2.5981    0.0000 C   0  0  0  0  0  0  0  0  0  0  0  0
    3.5260   -1.2990    0.0000 C   0  0  0  0  0  0  0  0  0  0  0  0
    2.7760   -2.5981    0.0000 C   0  0  0  0  0  0  0  0  0  0  0  0
    3.5260   -3.8971    0.0000 C   0  0  0  0  0  0  0  0  0  0  0  0
    2.7760   -5.1962    0.0000 C   0  0  0  0  0  0  0  0  0  0  0  0
    5.0260   -3.8971    0.0000 C   0  0  0  0  0  0  0  0  0  0  0  0
    2.7760   -0.0000    0.0000 C   0  0  0  0  0  0  0  0  0  0  0  0
    3.5260    1.2990    0.0000 O   0  0  0  0  0  0  0  0  0  0  0  0
    1.2760    0.0000    0.0000 N   0  0  0  0  0  0  0  0  0  0  0  0
    0.3943    1.2135    0.0000 C   0  0  0  0  0  0  0  0  0  0  0  0
   -1.0323    0.7500    0.0000 C   0  0  0  0  0  0  0  0  0  0  0  0
   -1.0323   -0.7500    0.0000 C   0  0  0  0  0  0  0  0  0  0  0  0
    0.3943   -1.2135    0.0000 C   0  0  0  0  0  0  0  0  0  0  0  0
    0.8578   -2.6401    0.0000 C   0  0  0  0  0  0  0  0  0  0  0  0
    2.2060   -3.2977    0.0000 O   0  0  0  0  0  0  0  0  0  0  0  0
   -0.1459   -3.7548    0.0000 N   0  0  0  0  0  0  0  0  0  0  0  0
    0.3177   -5.1814    0.0000 C   0  0  0  0  0  0  0  0  0  0  0  0
   -1.6131   -3.4430    0.0000 C   0  0  0  0  0  0  0  0  0  0  0  0
   -2.6168   -4.5577    0.0000 C   0  0  0  0  0  0  0  0  0  0  0  0
   -4.0840   -4.2458    0.0000 C   0  0  0  0  0  0  0  0  0  0  0  0
   -5.0877   -5.3605    0.0000 C   0  0  0  0  0  0  0  0  0  0  0  0
   -4.5475   -2.8192    0.0000 C   0  0  0  0  0  0  0  0  0  0  0  0
   -2.0766   -2.0164    0.0000 C   0  0  0  0  0  0  0  0  0  0  0  0
   -1.7024   -1.3125    0.0000 O   0  0  0  0  0  0  0  0  0  0  0  0
   -3.5438   -1.7045    0.0000 N   0  0  0  0  0  0  0  0  0  0  0  0
   -4.0074   -0.2779    0.0000 C   0  0  0  0  0  0  0  0  0  0  0  0
   -5.4746    0.0339    0.0000 C   0  0  0  0  0  0  0  0  0  0  0  0
   -5.9381    1.4605    0.0000 C   0  0  0  0  0  0  0  0  0  0  0  0
   -7.4053    1.7724    0.0000 C   0  0  0  0  0  0  0  0  0  0  0  0
   -5.2340    2.7850    0.0000 C   0  0  0  0  0  0  0  0  0  0  0  0
   -3.0037    0.8368    0.0000 C   0  0  0  0  0  0  0  0  0  0  0  0
   -1.5046    0.8892    0.0000 O   0  0  0  0  0  0  0  0  0  0  0  0
   -3.4672    2.2634    0.0000 N   0  0  0  0  0  0  0  0  0  0  0  0
   -4.8938    2.7269    0.0000 C   0  0  0  0  0  0  0  0  0  0  0  0
   -4.8938    4.2269    0.0000 C   0  0  0  0  0  0  0  0  0  0  0  0
   -3.4672    4.6904    0.0000 C   0  0  0  0  0  0  0  0  0  0  0  0
   -2.5855    3.4769    0.0000 C   0  0  0  0  0  0  0  0  0  0  0  0
   -1.0855    3.4769    0.0000 C   0  0  0  0  0  0  0  0  0  0  0  0
   -0.3355    2.1779    0.0000 O   0  0  0  0  0  0  0  0  0  0  0  0
   -0.3355    4.7759    0.0000 N   0  0  0  0  0  0  0  0  0  0  0  0
    1.1645    4.7759    0.0000 C   0  0  0  0  0  0  0  0  0  0  0  0
    1.9145    6.0750    0.0000 C   0  0  0  0  0  0  0  0  0  0  0  0
    3.4145    6.0750    0.0000 C   0  0  0  0  0  0  0  0  0  0  0  0
    4.9145    6.0750    0.0000 C   0  0  0  0  0  0  0  0  0  0  0  0
    1.9145    3.4769    0.0000 C   0  0  0  0  0  0  0  0  0  0  0  0
    1.1645    2.1779    0.0000 O   0  0  0  0  0  0  0  0  0  0  0  0
    3.4145    3.4769    0.0000 O   0  0  0  0  0  0  0  0  0  0  0  0
  2  1  1  6
  2  3  1  0
  3  4  1  0
  4  5  1  0
  4  6  1  0
  2  7  1  0
  7  8  2  0
  7  9  1  0
  9 10  1  0
  9 11  1  0
 11 12  1  1
 12 13  1  0
 13 14  1  0
 13 15  1  0
 11 16  1  0
 16 17  2  0
 16 18  1  0
 18 19  1  0
 19 20  1  0
 20 21  1  0
 21 22  1  0
 22 23  1  6
 23 24  2  0
 23 25  1  0
 25 26  1  0
 25 27  1  0
 27 28  1  1
 28 29  1  0
 29 30  1  0
 29 31  1  0
 27 32  1  0
 32 33  2  0
 32 34  1  0
 34 35  1  0
 35 36  1  1
 36 37  1  0
 37 38  1  0
 37 39  1  0
 35 40  1  0
 40 41  2  0
 40 42  1  0
 42 43  1  0
 43 44  1  0
 44 45  1  0
 45 46  1  0
 46 47  1  1
 47 48  2  0
 47 49  1  0
 49 50  1  0
 50 51  1  1
 51 52  1  0
 52 53  3  0
 50 54  1  0
 54 55  2  0
 54 56  1  0
 22 18  1  0
 46 42  1  0
M  END
$$$$

     RDKit          2D

 56 57  0  0  0  0  0  0  0  0999 V2000
    8.0260   -1.2990    0.0000 N   0  0  0  0  0  0  0  0  0  0  0  0
    7.2760   -0.0000    0.0000 C   0  0  0  0  0  0  0  0  0  0  0  0
    8.0260    1.2990    0.0000 C   0  0  0  0  0  0  0  0  0  0  0  0
    9.5260    1.2990    0.0000 C   0  0  0  0  0  0  0  0  0  0  0  0
   10.2760    2.5981    0.0000 C   0  0  0  0  0  0  0  0  0  0  0  0
   10.2760    0.0000    0.0000 C   0  0  0  0  0  0  0  0  0  0  0  0
    5.7760   -0.0000    0.0000 C   0  0  0  0  0  0  0  0  0  0  0  0
    5.0260    1.2990    0.0000 O   0  0  0  0  0  0  0  0  0  0  0  0
    5.0260   -1.2990    0.0000 N   0  0  0  0  0  0  0  0  0  0  0  0
    5.7760   -2.5981    0.0000 C   0  0  0  0  0  0  0  0  0  0  0  0
    3.5260   -1.2990    0.0000 C   0  0  0  0  0  0  0  0  0  0  0  0
    2.7760   -2.5981    0.0000 C   0  0  0  0  0  0  0  0  0  0  0  0
    3.5260   -3.8971    0.0000 C   0  0  0  0  0  0  0  0  0  0  0  0
    2.7760   -5.1962    0.0000 C   0  0  0  0  0  0  0  0  0  0  0  0
    5.0260   -3.8971    0.0000 C   0  0  0  0  0  0  0  0  0  0  0  0
    2.7760   -0.0000    0.0000 C   0  0  0  0  0  0  0  0  0  0  0  0
    3.5260    1.2990    0.0000 O   0  0  0  0  0  0  0  0  0  0  0  0
    1.2760    0.0000    0.0000 N   0  0  0  0  0  0  0  0  0  0  0  0
    0.3943    1.2135    0.0000 C   0  0  0  0  0  0  0  0  0  0  0  0
   -1.0323    0.7500    0.0000 C   0  0  0  0  0  0  0  0  0  0  0  0
   -1.0323   -0.7500    0.0000 C   0  0  0  0  0  0  0  0  0  0  0  0
    0.3943   -1.2135    0.0000 C   0  0  0  0  0  0  0  0  0  0  0  0
    0.8578   -2.6401    0.0000 C   0  0  0  0  0  0  0  0  0  0  0  0
    2.2060   -3.2977    0.0000 O   0  0  0  0  0  0  0  0  0  0  0  0
   -0.1459   -3.7548    0.0000 N   0  0  0  0  0  0  0  0  0  0  0  0
    0.3177   -5.1814    0.0000 C   0  0  0  0  0  0  0  0  0  0  0  0
   -1.6131   -3.4430    0.0000 C   0  0  0  0  0  0  0  0  0  0  0  0
   -2.6168   -4.5577    0.0000 C   0  0  0  0  0  0  0  0  0  0  0  0
   -4.0840   -4.2458    0.0000 C   0  0  0  0  0  0  0  0  0  0  0  0
   -5.0877   -5.3605    0.0000 C   0  0  0  0  0  0  0  0  0  0  0  0
   -4.5475   -2.8192    0.0000 C   0  0  0  0  0  0  0  0  0  0  0  0
   -2.0766   -2.0164    0.0000 C   0  0  0  0  0  0  0  0  0  0  0  0
   -1.7024   -1.3125    0.0000 O   0  0  0  0  0  0  0  0  0  0  0  0
   -3.5438   -1.7045    0.0000 N   0  0  0  0  0  0  0  0  0  0  0  0
   -4.0074   -0.2779    0.0000 C   0  0  0  0  0  0  0  0  0  0  0  0
   -5.4746    0.0339    0.0000 C   0  0  0  0  0  0  0  0  0  0  0  0
   -5.9381    1.4605    0.0000 C   0  0  0  0  0  0  0  0  0  0  0  0
   -7.4053    1.7724    0.0000 C   0  0  0  0  0  0  0  0  0  0  0  0
   -5.2340    2.7850    0.0000 C   0  0  0  0  0  0  0  0  0  0  0  0
   -3.0037    0.8368    0.0000 C   0  0  0  0  0  0  0  0  0  0  0  0
   -1.5046    0.8892    0.0000 O   0  0  0  0  0  0  0  0  0  0  0  0
   -3.4672    2.2634    0.0000 N   0  0  0  0  0  0  0  0  0  0  0  0
   -4.8938    2.7269    0.0000 C   0  0  0  0  0  0  0  0  0  0  0  0
   -4.8938    4.2269    0.0000 C   0  0  0  0  0  0  0  0  0  0  0  0
   -3.4672    4.6904    0.0000 C   0  0  0  0  0  0  0  0  0  0  0  0
   -2.5855    3.4769    0.0000 C   0  0  0  0  0  0  0  0  0  0  0  0
   -1.0855    3.4769    0.0000 C   0  0  0  0  0  0  0  0  0  0  0  0
   -0.3355    2.1779    0.0000 O   0  0  0  0  0  0  0  0  0  0  0  0
   -0.3355    4.7759    0.0000 N   0  0  0  0  0  0  0  0  0  0  0  0
    1.1645    4.7759    0.0000 C   0  0  0  0  0  0  0  0  0  0  0  0
    1.9145    6.0750    0.0000 C   0  0  0  0  0  0  0  0  0  0  0  0
    3.4145    6.0750    0.0000 C   0  0  0  0  0  0  0  0  0  0  0  0
    4.9145    6.0750    0.0000 C   0  0  0  0  0  0  0  0  0  0  0  0
    1.9145    3.4769    0.0000 C   0  0  0  0  0  0  0  0  0  0  0  0
    1.1645    2.1779    0.0000 O   0  0  0  0  0  0  0  0  0  0  0  0
    3.4145    3.4769    0.0000 O   0  0  0  0  0  0  0  0  0  0  0  0
  2  1  1  1
  2  3  1  0
  3  4  1  0
  4  5  1  0
  4  6  1  0
  2  7  1  0
  7  8  2  0
  7  9  1  0
  9 10  1  0
  9 11  1  0
 11 12  1  1
 12 13  1  0
 13 14  1  0
 13 15  1  0
 11 16  1  0
 16 17  2  0
 16 18  1  0
 18 19  1  0
 19 20  1  0
 20 21  1  0
 21 22  1  0
 22 23  1  6
 23 24  2  0
 23 25  1  0
 25 26  1  0
 25 27  1  0
 27 28  1  1
 28 29  1  0
 29 30  1  0
 29 31  1  0
 27 32  1  0
 32 33  2  0
 32 34  1  0
 34 35  1  0
 35 36  1  1
 36 37  1  0
 37 38  1  0
 37 39  1  0
 35 40  1  0
 40 41  2  0
 40 42  1  0
 42 43  1  0
 43 44  1  0
 44 45  1  0
 45 46  1  0
 46 47  1  1
 47 48  2  0
 47 49  1  0
 49 50  1  0
 50 51  1  1
 51 52  1  0
 52 53  3  0
 50 54  1  0
 54 55  2  0
 54 56  1  0
 22 18  1  0
 46 42  1  0
M  END
$$$$

     RDKit          2D

 40 40  0  0  0  0  0  0  0  0999 V2000
   -1.7240    5.1962    0.0000 N   0  0  0  0  0  0  0  0  0  0  0  0
   -0.9740    3.8971    0.0000 C   0  0  0  0  0  0  0  0  0  0  0  0
   -1.7240    2.5981    0.0000 C   0  0  0  0  0  0  0  0  0  0  0  0
   -3.2240    2.5981    0.0000 C   0  0  0  0  0  0  0  0  0  0  0  0
   -3.9740    1.2990    0.0000 C   0  0  0  0  0  0  0  0  0  0  0  0
   -3.9740    3.8971    0.0000 C   0  0  0  0  0  0  0  0  0  0  0  0
    0.5260    3.8971    0.0000 C   0  0  0  0  0  0  0  0  0  0  0  0
    1.2760    2.5981    0.0000 O   0  0  0  0  0  0  0  0  0  0  0  0
    1.2760    5.1962    0.0000 N   0  0  0  0  0  0  0  0  0  0  0  0
    0.5260    6.4952    0.0000 C   0  0  0  0  0  0  0  0  0  0  0  0
    2.7760    5.1962    0.0000 C   0  0  0  0  0  0  0  0  0  0  0  0
    3.5260    6.4952    0.0000 C   0  0  0  0  0  0  0  0  0  0  0  0
    2.7760    7.7942    0.0000 C   0  0  0  0  0  0  0  0  0  0  0  0
    3.5260    9.0933    0.0000 C   0  0  0  0  0  0  0  0  0  0  0  0
    1.2760    7.7942    0.0000 C   0  0  0  0  0  0  0  0  0  0  0  0
    3.5260    3.8971    0.0000 C   0  0  0  0  0  0  0  0  0  0  0  0
    5.0260    3.8971    0.0000 O   0  0  0  0  0  0  0  0  0  0  0  0
    2.7760    2.5981    0.0000 N   0  0  0  0  0  0  0  0  0  0  0  0
    3.5260    1.2990    0.0000 C   0  0  0  0  0  0  0  0  0  0  0  0
    5.0260    1.2990    0.0000 C   0  0  0  0  0  0  0  0  0  0  0  0
    5.7760    0.0000    0.0000 C   0  0  0  0  0  0  0  0  0  0  0  0
    7.2760    0.0000    0.0000 C   0  0  0  0  0  0  0  0  0  0  0  0
    5.0260   -1.2990    0.0000 C   0  0  0  0  0  0  0  0  0  0  0  0
    2.7760    0.0000    0.0000 C   0  0  0  0  0  0  0  0  0  0  0  0
    3.5260   -1.2990    0.0000 O   0  0  0  0  0  0  0  0  0  0  0  0
    1.2760    0.0000    0.0000 N   0  0  0  0  0  0  0  0  0  0  0  0
    0.3943    1.2135    0.0000 C   0  0  0  0  0  0  0  0  0  0  0  0
   -1.0323    0.7500    0.0000 C   0  0  0  0  0  0  0  0  0  0  0  0
   -1.0323   -0.7500    0.0000 C   0  0  0  0  0  0  0  0  0  0  0  0
    0.3943   -1.2135    0.0000 C   0  0  0  0  0  0  0  0  0  0  0  0
    0.8578   -2.6401    0.0000 C   0  0  0  0  0  0  0  0  0  0  0  0
    2.3250   -2.9520    0.0000 O   0  0  0  0  0  0  0  0  0  0  0  0
   -0.1459   -3.7548    0.0000 N   0  0  0  0  0  0  0  0  0  0  0  0
    0.3177   -5.1814    0.0000 C   0  0  0  0  0  0  0  0  0  0  0  0
   -0.6860   -6.2961    0.0000 C   0  0  0  0  0  0  0  0  0  0  0  0
   -0.2225   -7.7227    0.0000 C   0  0  0  0  0  0  0  0  0  0  0  0
    0.2410   -9.1493    0.0000 C   0  0  0  0  0  0  0  0  0  0  0  0
    1.7849   -5.4933    0.0000 C   0  0  0  0  0  0  0  0  0  0  0  0
    2.7886   -4.3786    0.0000 O   0  0  0  0  0  0  0  0  0  0  0  0
    2.2484   -6.9199    0.0000 O   0  0  0  0  0  0  0  0  0  0  0  0
  2  1  1  6
  2  3  1  0
  3  4  1  0
  4  5  1  0
  4  6  1  0
  2  7  1  0
  7  8  2  0
  7  9  1  0
  9 10  1  0
  9 11  1  0
 11 12  1  6
 12 13  1  0
 13 14  1  0
 13 15  1  0
 11 16  1  0
 16 17  2  0
 16 18  1  0
 18 19  1  0
 19 20  1  1
 20 21  1  0
 21 22  1  0
 21 23  1  0
 19 24  1  0
 24 25  2  0
 24 26  1  0
 26 27  1  0
 27 28  1  0
 28 29  1  0
 29 30  1  0
 30 31  1  6
 31 32  2  0
 31 33  1  0
 33 34  1  0
 34 35  1  6
 35 36  1  0
 36 37  3  0
 34 38  1  0
 38 39  2  0
 38 40  1  0
 30 26  1  0
M  END
$$$$

     RDKit          2D

 40 40  0  0  0  0  0  0  0  0999 V2000
   -1.7240    5.1962    0.0000 N   0  0  0  0  0  0  0  0  0  0  0  0
   -0.9740    3.8971    0.0000 C   0  0  0  0  0  0  0  0  0  0  0  0
   -1.7240    2.5981    0.0000 C   0  0  0  0  0  0  0  0  0  0  0  0
   -3.2240    2.5981    0.0000 C   0  0  0  0  0  0  0  0  0  0  0  0
   -3.9740    1.2990    0.0000 C   0  0  0  0  0  0  0  0  0  0  0  0
   -3.9740    3.8971    0.0000 C   0  0  0  0  0  0  0  0  0  0  0  0
    0.5260    3.8971    0.0000 C   0  0  0  0  0  0  0  0  0  0  0  0
    1.2760    2.5981    0.0000 O   0  0  0  0  0  0  0  0  0  0  0  0
    1.2760    5.1962    0.0000 N   0  0  0  0  0  0  0  0  0  0  0  0
    0.5260    6.4952    0.0000 C   0  0  0  0  0  0  0  0  0  0  0  0
    2.7760    5.1962    0.0000 C   0  0  0  0  0  0  0  0  0  0  0  0
    3.5260    6.4952    0.0000 C   0  0  0  0  0  0  0  0  0  0  0  0
    2.7760    7.7942    0.0000 C   0  0  0  0  0  0  0  0  0  0  0  0
    3.5260    9.0933    0.0000 C   0  0  0  0  0  0  0  0  0  0  0  0
    1.2760    7.7942    0.0000 C   0  0  0  0  0  0  0  0  0  0  0  0
    3.5260    3.8971    0.0000 C   0  0  0  0  0  0  0  0  0  0  0  0
    5.0260    3.8971    0.0000 O   0  0  0  0  0  0  0  0  0  0  0  0
    2.7760    2.5981    0.0000 N   0  0  0  0  0  0  0  0  0  0  0  0
    3.5260    1.2990    0.0000 C   0  0  0  0  0  0  0  0  0  0  0  0
    5.0260    1.2990    0.0000 C   0  0  0  0  0  0  0  0  0  0  0  0
    5.7760    0.0000    0.0000 C   0  0  0  0  0  0  0  0  0  0  0  0
    7.2760    0.0000    0.0000 C   0  0  0  0  0  0  0  0  0  0  0  0
    5.0260   -1.2990    0.0000 C   0  0  0  0  0  0  0  0  0  0  0  0
    2.7760    0.0000    0.0000 C   0  0  0  0  0  0  0  0  0  0  0  0
    3.5260   -1.2990    0.0000 O   0  0  0  0  0  0  0  0  0  0  0  0
    1.2760    0.0000    0.0000 N   0  0  0  0  0  0  0  0  0  0  0  0
    0.3943    1.2135    0.0000 C   0  0  0  0  0  0  0  0  0  0  0  0
   -1.0323    0.7500    0.0000 C   0  0  0  0  0  0  0  0  0  0  0  0
   -1.0323   -0.7500    0.0000 C   0  0  0  0  0  0  0  0  0  0  0  0
    0.3943   -1.2135    0.0000 C   0  0  0  0  0  0  0  0  0  0  0  0
    0.8578   -2.6401    0.0000 C   0  0  0  0  0  0  0  0  0  0  0  0
    2.3250   -2.9520    0.0000 O   0  0  0  0  0  0  0  0  0  0  0  0
   -0.1459   -3.7548    0.0000 N   0  0  0  0  0  0  0  0  0  0  0  0
    0.3177   -5.1814    0.0000 C   0  0  0  0  0  0  0  0  0  0  0  0
   -0.6860   -6.2961    0.0000 C   0  0  0  0  0  0  0  0  0  0  0  0
   -0.2225   -7.7227    0.0000 C   0  0  0  0  0  0  0  0  0  0  0  0
    0.2410   -9.1493    0.0000 C   0  0  0  0  0  0  0  0  0  0  0  0
    1.7849   -5.4933    0.0000 C   0  0  0  0  0  0  0  0  0  0  0  0
    2.7886   -4.3786    0.0000 O   0  0  0  0  0  0  0  0  0  0  0  0
    2.2484   -6.9199    0.0000 O   0  0  0  0  0  0  0  0  0  0  0  0
  2  1  1  1
  2  3  1  0
  3  4  1  0
  4  5  1  0
  4  6  1  0
  2  7  1  0
  7  8  2  0
  7  9  1  0
  9 10  1  0
  9 11  1  0
 11 12  1  6
 12 13  1  0
 13 14  1  0
 13 15  1  0
 11 16  1  0
 16 17  2  0
 16 18  1  0
 18 19  1  0
 19 20  1  1
 20 21  1  0
 21 22  1  0
 21 23  1  0
 19 24  1  0
 24 25  2  0
 24 26  1  0
 26 27  1  0
 27 28  1  0
 28 29  1  0
 29 30  1  0
 30 31  1  6
 31 32  2  0
 31 33  1  0
 33 34  1  0
 34 35  1  6
 35 36  1  0
 36 37  3  0
 34 38  1  0
 38 39  2  0
 38 40  1  0
 30 26  1  0
M  END
$$$$

     RDKit          2D

 39 39  0  0  0  0  0  0  0  0999 V2000
    5.0260    9.0933    0.0000 N   0  0  0  0  0  0  0  0  0  0  0  0
    5.7760    7.7942    0.0000 C   0  0  0  0  0  0  0  0  0  0  0  0
    7.2760    7.7942    0.0000 C   0  0  0  0  0  0  0  0  0  0  0  0
    8.0260    9.0933    0.0000 C   0  0  0  0  0  0  0  0  0  0  0  0
    8.0260    6.4952    0.0000 C   0  0  0  0  0  0  0  0  0  0  0  0
    5.0260    6.4952    0.0000 C   0  0  0  0  0  0  0  0  0  0  0  0
    5.7760    5.1962    0.0000 O   0  0  0  0  0  0  0  0  0  0  0  0
    3.5260    6.4952    0.0000 N   0  0  0  0  0  0  0  0  0  0  0  0
    2.7760    7.7942    0.0000 C   0  0  0  0  0  0  0  0  0  0  0  0
    2.7760    5.1962    0.0000 C   0  0  0  0  0  0  0  0  0  0  0  0
    1.2760    5.1962    0.0000 C   0  0  0  0  0  0  0  0  0  0  0  0
    0.5260    6.4952    0.0000 C   0  0  0  0  0  0  0  0  0  0  0  0
   -0.9740    6.4952    0.0000 C   0  0  0  0  0  0  0  0  0  0  0  0
    1.2760    7.7942    0.0000 C   0  0  0  0  0  0  0  0  0  0  0  0
    3.5260    3.8971    0.0000 C   0  0  0  0  0  0  0  0  0  0  0  0
    5.0260    3.8971    0.0000 O   0  0  0  0  0  0  0  0  0  0  0  0
    2.7760    2.5981    0.0000 N   0  0  0  0  0  0  0  0  0  0  0  0
    3.5260    1.2990    0.0000 C   0  0  0  0  0  0  0  0  0  0  0  0
    5.0260    1.2990    0.0000 C   0  0  0  0  0  0  0  0  0  0  0  0
    5.7760    0.0000    0.0000 C   0  0  0  0  0  0  0  0  0  0  0  0
    7.2760    0.0000    0.0000 C   0  0  0  0  0  0  0  0  0  0  0  0
    5.0260   -1.2990    0.0000 C   0  0  0  0  0  0  0  0  0  0  0  0
    2.7760   -0.0000    0.0000 C   0  0  0  0  0  0  0  0  0  0  0  0
    3.5260   -1.2990    0.0000 O   0  0  0  0  0  0  0  0  0  0  0  0
    1.2760   -0.0000    0.0000 N   0  0  0  0  0  0  0  0  0  0  0  0
    0.3943    1.2135    0.0000 C   0  0  0  0  0  0  0  0  0  0  0  0
   -1.0323    0.7500    0.0000 C   0  0  0  0  0  0  0  0  0  0  0  0
   -1.0323   -0.7500    0.0000 C   0  0  0  0  0  0  0  0  0  0  0  0
    0.3943   -1.2135    0.0000 C   0  0  0  0  0  0  0  0  0  0  0  0
    0.8578   -2.6401    0.0000 C   0  0  0  0  0  0  0  0  0  0  0  0
    2.3250   -2.9520    0.0000 O   0  0  0  0  0  0  0  0  0  0  0  0
   -0.1459   -3.7548    0.0000 N   0  0  0  0  0  0  0  0  0  0  0  0
    0.3177   -5.1814    0.0000 C   0  0  0  0  0  0  0  0  0  0  0  0
   -0.6860   -6.2961    0.0000 C   0  0  0  0  0  0  0  0  0  0  0  0
   -0.2225   -7.7227    0.0000 C   0  0  0  0  0  0  0  0  0  0  0  0
    0.2410   -9.1493    0.0000 C   0  0  0  0  0  0  0  0  0  0  0  0
    1.7849   -5.4933    0.0000 C   0  0  0  0  0  0  0  0  0  0  0  0
    2.7886   -4.3786    0.0000 O   0  0  0  0  0  0  0  0  0  0  0  0
    2.2484   -6.9199    0.0000 O   0  0  0  0  0  0  0  0  0  0  0  0
  2  1  1  1
  2  3  1  0
  3  4  1  0
  3  5  1  0
  2  6  1  0
  6  7  2  0
  6  8  1  0
  8  9  1  0
  8 10  1  0
 10 11  1  1
 11 12  1  0
 12 13  1  0
 12 14  1  0
 10 15  1  0
 15 16  2  0
 15 17  1  0
 17 18  1  0
 18 19  1  1
 19 20  1  0
 20 21  1  0
 20 22  1  0
 18 23  1  0
 23 24  2  0
 23 25  1  0
 25 26  1  0
 26 27  1  0
 27 28  1  0
 28 29  1  0
 29 30  1  6
 30 31  2  0
 30 32  1  0
 32 33  1  0
 33 34  1  6
 34 35  1  0
 35 36  3  0
 33 37  1  0
 37 38  2  0
 37 39  1  0
 29 25  1  0
M  END
$$$$

     RDKit          2D

 39 39  0  0  0  0  0  0  0  0999 V2000
    5.0260    9.0933    0.0000 N   0  0  0  0  0  0  0  0  0  0  0  0
    5.7760    7.7942    0.0000 C   0  0  0  0  0  0  0  0  0  0  0  0
    7.2760    7.7942    0.0000 C   0  0  0  0  0  0  0  0  0  0  0  0
    8.0260    9.0933    0.0000 C   0  0  0  0  0  0  0  0  0  0  0  0
    8.0260    6.4952    0.0000 C   0  0  0  0  0  0  0  0  0  0  0  0
    5.0260    6.4952    0.0000 C   0  0  0  0  0  0  0  0  0  0  0  0
    5.7760    5.1962    0.0000 O   0  0  0  0  0  0  0  0  0  0  0  0
    3.5260    6.4952    0.0000 N   0  0  0  0  0  0  0  0  0  0  0  0
    2.7760    7.7942    0.0000 C   0  0  0  0  0  0  0  0  0  0  0  0
    2.7760    5.1962    0.0000 C   0  0  0  0  0  0  0  0  0  0  0  0
    1.2760    5.1962    0.0000 C   0  0  0  0  0  0  0  0  0  0  0  0
    0.5260    6.4952    0.0000 C   0  0  0  0  0  0  0  0  0  0  0  0
   -0.9740    6.4952    0.0000 C   0  0  0  0  0  0  0  0  0  0  0  0
    1.2760    7.7942    0.0000 C   0  0  0  0  0  0  0  0  0  0  0  0
    3.5260    3.8971    0.0000 C   0  0  0  0  0  0  0  0  0  0  0  0
    5.0260    3.8971    0.0000 O   0  0  0  0  0  0  0  0  0  0  0  0
    2.7760    2.5981    0.0000 N   0  0  0  0  0  0  0  0  0  0  0  0
    3.5260    1.2990    0.0000 C   0  0  0  0  0  0  0  0  0  0  0  0
    5.0260    1.2990    0.0000 C   0  0  0  0  0  0  0  0  0  0  0  0
    5.7760    0.0000    0.0000 C   0  0  0  0  0  0  0  0  0  0  0  0
    7.2760    0.0000    0.0000 C   0  0  0  0  0  0  0  0  0  0  0  0
    5.0260   -1.2990    0.0000 C   0  0  0  0  0  0  0  0  0  0  0  0
    2.7760   -0.0000    0.0000 C   0  0  0  0  0  0  0  0  0  0  0  0
    3.5260   -1.2990    0.0000 O   0  0  0  0  0  0  0  0  0  0  0  0
    1.2760   -0.0000    0.0000 N   0  0  0  0  0  0  0  0  0  0  0  0
    0.3943    1.2135    0.0000 C   0  0  0  0  0  0  0  0  0  0  0  0
   -1.0323    0.7500    0.0000 C   0  0  0  0  0  0  0  0  0  0  0  0
   -1.0323   -0.7500    0.0000 C   0  0  0  0  0  0  0  0  0  0  0  0
    0.3943   -1.2135    0.0000 C   0  0  0  0  0  0  0  0  0  0  0  0
    0.8578   -2.6401    0.0000 C   0  0  0  0  0  0  0  0  0  0  0  0
    2.3250   -2.9520    0.0000 O   0  0  0  0  0  0  0  0  0  0  0  0
   -0.1459   -3.7548    0.0000 N   0  0  0  0  0  0  0  0  0  0  0  0
    0.3177   -5.1814    0.0000 C   0  0  0  0  0  0  0  0  0  0  0  0
   -0.6860   -6.2961    0.0000 C   0  0  0  0  0  0  0  0  0  0  0  0
   -0.2225   -7.7227    0.0000 C   0  0  0  0  0  0  0  0  0  0  0  0
    0.2410   -9.1493    0.0000 C   0  0  0  0  0  0  0  0  0  0  0  0
    1.7849   -5.4933    0.0000 C   0  0  0  0  0  0  0  0  0  0  0  0
    2.7886   -4.3786    0.0000 O   0  0  0  0  0  0  0  0  0  0  0  0
    2.2484   -6.9199    0.0000 O   0  0  0  0  0  0  0  0  0  0  0  0
  2  1  1  6
  2  3  1  0
  3  4  1  0
  3  5  1  0
  2  6  1  0
  6  7  2  0
  6  8  1  0
  8  9  1  0
  8 10  1  0
 10 11  1  1
 11 12  1  0
 12 13  1  0
 12 14  1  0
 10 15  1  0
 15 16  2  0
 15 17  1  0
 17 18  1  0
 18 19  1  1
 19 20  1  0
 20 21  1  0
 20 22  1  0
 18 23  1  0
 23 24  2  0
 23 25  1  0
 25 26  1  0
 26 27  1  0
 27 28  1  0
 28 29  1  0
 29 30  1  6
 30 31  2  0
 30 32  1  0
 32 33  1  0
 33 34  1  6
 34 35  1  0
 35 36  3  0
 33 37  1  0
 37 38  2  0
 37 39  1  0
 29 25  1  0
M  END
$$$$

     RDKit          2D

 41 41  0  0  0  0  0  0  0  0999 V2000
   -1.7240    5.1962    0.0000 N   0  0  0  0  0  0  0  0  0  0  0  0
   -3.2240    5.1962    0.0000 C   0  0  0  0  0  0  0  0  0  0  0  0
   -0.9740    3.8971    0.0000 C   0  0  0  0  0  0  0  0  0  0  0  0
   -1.7240    2.5981    0.0000 C   0  0  0  0  0  0  0  0  0  0  0  0
   -3.2240    2.5981    0.0000 C   0  0  0  0  0  0  0  0  0  0  0  0
   -3.9740    1.2990    0.0000 C   0  0  0  0  0  0  0  0  0  0  0  0
   -3.9740    3.8971    0.0000 C   0  0  0  0  0  0  0  0  0  0  0  0
    0.5260    3.8971    0.0000 C   0  0  0  0  0  0  0  0  0  0  0  0
    1.2760    2.5981    0.0000 O   0  0  0  0  0  0  0  0  0  0  0  0
    1.2760    5.1962    0.0000 N   0  0  0  0  0  0  0  0  0  0  0  0
    0.5260    6.4952    0.0000 C   0  0  0  0  0  0  0  0  0  0  0  0
    2.7760    5.1962    0.0000 C   0  0  0  0  0  0  0  0  0  0  0  0
    3.5260    6.4952    0.0000 C   0  0  0  0  0  0  0  0  0  0  0  0
    2.7760    7.7942    0.0000 C   0  0  0  0  0  0  0  0  0  0  0  0
    3.5260    9.0933    0.0000 C   0  0  0  0  0  0  0  0  0  0  0  0
    1.2760    7.7942    0.0000 C   0  0  0  0  0  0  0  0  0  0  0  0
    3.5260    3.8971    0.0000 C   0  0  0  0  0  0  0  0  0  0  0  0
    5.0260    3.8971    0.0000 O   0  0  0  0  0  0  0  0  0  0  0  0
    2.7760    2.5981    0.0000 N   0  0  0  0  0  0  0  0  0  0  0  0
    3.5260    1.2990    0.0000 C   0  0  0  0  0  0  0  0  0  0  0  0
    5.0260    1.2990    0.0000 C   0  0  0  0  0  0  0  0  0  0  0  0
    5.7760    0.0000    0.0000 C   0  0  0  0  0  0  0  0  0  0  0  0
    5.0260   -1.2990    0.0000 C   0  0  0  0  0  0  0  0  0  0  0  0
    7.2760    0.0000    0.0000 C   0  0  0  0  0  0  0  0  0  0  0  0
    2.7760    0.0000    0.0000 C   0  0  0  0  0  0  0  0  0  0  0  0
    3.5260   -1.2990    0.0000 O   0  0  0  0  0  0  0  0  0  0  0  0
    1.2760    0.0000    0.0000 N   0  0  0  0  0  0  0  0  0  0  0  0
    0.3943    1.2135    0.0000 C   0  0  0  0  0  0  0  0  0  0  0  0
   -1.0323    0.7500    0.0000 C   0  0  0  0  0  0  0  0  0  0  0  0
   -1.0323   -0.7500    0.0000 C   0  0  0  0  0  0  0  0  0  0  0  0
    0.3943   -1.2135    0.0000 C   0  0  0  0  0  0  0  0  0  0  0  0
    0.8578   -2.6401    0.0000 C   0  0  0  0  0  0  0  0  0  0  0  0
    2.3250   -2.9520    0.0000 O   0  0  0  0  0  0  0  0  0  0  0  0
   -0.1459   -3.7548    0.0000 N   0  0  0  0  0  0  0  0  0  0  0  0
    0.3177   -5.1814    0.0000 C   0  0  0  0  0  0  0  0  0  0  0  0
   -0.6860   -6.2961    0.0000 C   0  0  0  0  0  0  0  0  0  0  0  0
   -0.2225   -7.7227    0.0000 C   0  0  0  0  0  0  0  0  0  0  0  0
    0.2410   -9.1493    0.0000 C   0  0  0  0  0  0  0  0  0  0  0  0
    1.7849   -5.4933    0.0000 C   0  0  0  0  0  0  0  0  0  0  0  0
    2.7886   -4.3786    0.0000 O   0  0  0  0  0  0  0  0  0  0  0  0
    2.2484   -6.9199    0.0000 O   0  0  0  0  0  0  0  0  0  0  0  0
  1  2  1  0
  1  3  1  0
  3  4  1  6
  4  5  1  0
  5  6  1  0
  5  7  1  0
  3  8  1  0
  8  9  2  0
  8 10  1  0
 10 11  1  0
 10 12  1  0
 12 13  1  6
 13 14  1  0
 14 15  1  0
 14 16  1  0
 12 17  1  0
 17 18  2  0
 17 19  1  0
 19 20  1  0
 20 21  1  1
 21 22  1  0
 22 23  1  0
 22 24  1  0
 20 25  1  0
 25 26  2  0
 25 27  1  0
 27 28  1  0
 28 29  1  0
 29 30  1  0
 30 31  1  0
 31 32  1  6
 32 33  2  0
 32 34  1  0
 34 35  1  0
 35 36  1  6
 36 37  1  0
 37 38  3  0
 35 39  1  0
 39 40  2  0
 39 41  1  0
 31 27  1  0
M  END
$$$$

     RDKit          2D

 41 41  0  0  0  0  0  0  0  0999 V2000
   -1.7240    5.1962    0.0000 N   0  0  0  0  0  0  0  0  0  0  0  0
   -3.2240    5.1962    0.0000 C   0  0  0  0  0  0  0  0  0  0  0  0
   -0.9740    3.8971    0.0000 C   0  0  0  0  0  0  0  0  0  0  0  0
   -1.7240    2.5981    0.0000 C   0  0  0  0  0  0  0  0  0  0  0  0
   -3.2240    2.5981    0.0000 C   0  0  0  0  0  0  0  0  0  0  0  0
   -3.9740    1.2990    0.0000 C   0  0  0  0  0  0  0  0  0  0  0  0
   -3.9740    3.8971    0.0000 C   0  0  0  0  0  0  0  0  0  0  0  0
    0.5260    3.8971    0.0000 C   0  0  0  0  0  0  0  0  0  0  0  0
    1.2760    2.5981    0.0000 O   0  0  0  0  0  0  0  0  0  0  0  0
    1.2760    5.1962    0.0000 N   0  0  0  0  0  0  0  0  0  0  0  0
    0.5260    6.4952    0.0000 C   0  0  0  0  0  0  0  0  0  0  0  0
    2.7760    5.1962    0.0000 C   0  0  0  0  0  0  0  0  0  0  0  0
    3.5260    6.4952    0.0000 C   0  0  0  0  0  0  0  0  0  0  0  0
    2.7760    7.7942    0.0000 C   0  0  0  0  0  0  0  0  0  0  0  0
    3.5260    9.0933    0.0000 C   0  0  0  0  0  0  0  0  0  0  0  0
    1.2760    7.7942    0.0000 C   0  0  0  0  0  0  0  0  0  0  0  0
    3.5260    3.8971    0.0000 C   0  0  0  0  0  0  0  0  0  0  0  0
    5.0260    3.8971    0.0000 O   0  0  0  0  0  0  0  0  0  0  0  0
    2.7760    2.5981    0.0000 N   0  0  0  0  0  0  0  0  0  0  0  0
    3.5260    1.2990    0.0000 C   0  0  0  0  0  0  0  0  0  0  0  0
    5.0260    1.2990    0.0000 C   0  0  0  0  0  0  0  0  0  0  0  0
    5.7760    0.0000    0.0000 C   0  0  0  0  0  0  0  0  0  0  0  0
    5.0260   -1.2990    0.0000 C   0  0  0  0  0  0  0  0  0  0  0  0
    7.2760    0.0000    0.0000 C   0  0  0  0  0  0  0  0  0  0  0  0
    2.7760    0.0000    0.0000 C   0  0  0  0  0  0  0  0  0  0  0  0
    3.5260   -1.2990    0.0000 O   0  0  0  0  0  0  0  0  0  0  0  0
    1.2760    0.0000    0.0000 N   0  0  0  0  0  0  0  0  0  0  0  0
    0.3943    1.2135    0.0000 C   0  0  0  0  0  0  0  0  0  0  0  0
   -1.0323    0.7500    0.0000 C   0  0  0  0  0  0  0  0  0  0  0  0
   -1.0323   -0.7500    0.0000 C   0  0  0  0  0  0  0  0  0  0  0  0
    0.3943   -1.2135    0.0000 C   0  0  0  0  0  0  0  0  0  0  0  0
    0.8578   -2.6401    0.0000 C   0  0  0  0  0  0  0  0  0  0  0  0
    2.3250   -2.9520    0.0000 O   0  0  0  0  0  0  0  0  0  0  0  0
   -0.1459   -3.7548    0.0000 N   0  0  0  0  0  0  0  0  0  0  0  0
    0.3177   -5.1814    0.0000 C   0  0  0  0  0  0  0  0  0  0  0  0
   -0.6860   -6.2961    0.0000 C   0  0  0  0  0  0  0  0  0  0  0  0
   -0.2225   -7.7227    0.0000 C   0  0  0  0  0  0  0  0  0  0  0  0
    0.2410   -9.1493    0.0000 C   0  0  0  0  0  0  0  0  0  0  0  0
    1.7849   -5.4933    0.0000 C   0  0  0  0  0  0  0  0  0  0  0  0
    2.7886   -4.3786    0.0000 O   0  0  0  0  0  0  0  0  0  0  0  0
    2.2484   -6.9199    0.0000 O   0  0  0  0  0  0  0  0  0  0  0  0
  1  2  1  0
  1  3  1  0
  3  4  1  1
  4  5  1  0
  5  6  1  0
  5  7  1  0
  3  8  1  0
  8  9  2  0
  8 10  1  0
 10 11  1  0
 10 12  1  0
 12 13  1  6
 13 14  1  0
 14 15  1  0
 14 16  1  0
 12 17  1  0
 17 18  2  0
 17 19  1  0
 19 20  1  0
 20 21  1  1
 21 22  1  0
 22 23  1  0
 22 24  1  0
 20 25  1  0
 25 26  2  0
 25 27  1  0
 27 28  1  0
 28 29  1  0
 29 30  1  0
 30 31  1  0
 31 32  1  6
 32 33  2  0
 32 34  1  0
 34 35  1  0
 35 36  1  6
 36 37  1  0
 37 38  3  0
 35 39  1  0
 39 40  2  0
 39 41  1  0
 31 27  1  0
M  END
$$$$

     RDKit          2D

 43 44  0  0  0  0  0  0  0  0999 V2000
    1.5000   -7.7942    0.0000 N   0  0  0  0  0  0  0  0  0  0  0  0
    0.7500   -9.0933    0.0000 C   0  0  0  0  0  0  0  0  0  0  0  0
    1.5000  -10.3923    0.0000 C   0  0  0  0  0  0  0  0  0  0  0  0
    3.0000  -10.3923    0.0000 C   0  0  0  0  0  0  0  0  0  0  0  0
    3.7500  -11.6913    0.0000 C   0  0  0  0  0  0  0  0  0  0  0  0
    5.2500  -11.6913    0.0000 C   0  0  0  0  0  0  0  0  0  0  0  0
    6.0000  -10.3923    0.0000 C   0  0  0  0  0  0  0  0  0  0  0  0
    5.2500   -9.0933    0.0000 C   0  0  0  0  0  0  0  0  0  0  0  0
    3.7500   -9.0933    0.0000 C   0  0  0  0  0  0  0  0  0  0  0  0
   -0.7500   -9.0933    0.0000 C   0  0  0  0  0  0  0  0  0  0  0  0
   -1.5000  -10.3923    0.0000 O   0  0  0  0  0  0  0  0  0  0  0  0
   -1.5000   -7.7942    0.0000 N   0  0  0  0  0  0  0  0  0  0  0  0
   -3.0000   -7.7942    0.0000 C   0  0  0  0  0  0  0  0  0  0  0  0
   -0.7500   -6.4952    0.0000 C   0  0  0  0  0  0  0  0  0  0  0  0
    0.7500   -6.4952    0.0000 C   0  0  0  0  0  0  0  0  0  0  0  0
    1.5000   -5.1962    0.0000 C   0  0  0  0  0  0  0  0  0  0  0  0
    3.0000   -5.1962    0.0000 C   0  0  0  0  0  0  0  0  0  0  0  0
    0.7500   -3.8971    0.0000 C   0  0  0  0  0  0  0  0  0  0  0  0
   -1.5000   -5.1962    0.0000 C   0  0  0  0  0  0  0  0  0  0  0  0
   -0.7500   -3.8971    0.0000 O   0  0  0  0  0  0  0  0  0  0  0  0
   -3.0000   -5.1962    0.0000 N   0  0  0  0  0  0  0  0  0  0  0  0
   -3.7500   -3.8971    0.0000 C   0  0  0  0  0  0  0  0  0  0  0  0
   -5.2500   -3.8971    0.0000 C   0  0  0  0  0  0  0  0  0  0  0  0
   -6.0000   -5.1962    0.0000 C   0  0  0  0  0  0  0  0  0  0  0  0
   -7.5000   -5.1962    0.0000 C   0  0  0  0  0  0  0  0  0  0  0  0
   -5.2500   -6.4952    0.0000 C   0  0  0  0  0  0  0  0  0  0  0  0
   -3.0000   -2.5981    0.0000 C   0  0  0  0  0  0  0  0  0  0  0  0
   -1.5000   -2.5981    0.0000 O   0  0  0  0  0  0  0  0  0  0  0  0
   -3.7500   -1.2990    0.0000 N   0  0  0  0  0  0  0  0  0  0  0  0
   -5.2418   -1.1422    0.0000 C   0  0  0  0  0  0  0  0  0  0  0  0
   -5.5537    0.3250    0.0000 C   0  0  0  0  0  0  0  0  0  0  0  0
   -4.2546    1.0750    0.0000 C   0  0  0  0  0  0  0  0  0  0  0  0
   -3.1399    0.0713    0.0000 C   0  0  0  0  0  0  0  0  0  0  0  0
   -1.6727    0.3831    0.0000 C   0  0  0  0  0  0  0  0  0  0  0  0
   -0.6690   -0.7316    0.0000 O   0  0  0  0  0  0  0  0  0  0  0  0
   -1.2091    1.8097    0.0000 N   0  0  0  0  0  0  0  0  0  0  0  0
    0.2581    2.1216    0.0000 C   0  0  0  0  0  0  0  0  0  0  0  0
    0.7216    3.5482    0.0000 C   0  0  0  0  0  0  0  0  0  0  0  0
    2.1888    3.8601    0.0000 C   0  0  0  0  0  0  0  0  0  0  0  0
    3.6560    4.1719    0.0000 C   0  0  0  0  0  0  0  0  0  0  0  0
    1.2618    1.0069    0.0000 C   0  0  0  0  0  0  0  0  0  0  0  0
    0.7982   -0.4197    0.0000 O   0  0  0  0  0  0  0  0  0  0  0  0
    2.7290    1.3188    0.0000 O   0  0  0  0  0  0  0  0  0  0  0  0
  2  1  1  1
  2  3  1  0
  3  4  1  0
  4  5  2  0
  5  6  1  0
  6  7  2  0
  7  8  1  0
  8  9  2  0
  2 10  1  0
 10 11  2  0
 10 12  1  0
 12 13  1  0
 12 14  1  0
 14 15  1  1
 15 16  1  0
 16 17  1  0
 16 18  1  0
 14 19  1  0
 19 20  2  0
 19 21  1  0
 21 22  1  0
 22 23  1  1
 23 24  1  0
 24 25  1  0
 24 26  1  0
 22 27  1  0
 27 28  2  0
 27 29  1  0
 29 30  1  0
 30 31  1  0
 31 32  1  0
 32 33  1  0
 33 34  1  1
 34 35  2  0
 34 36  1  0
 36 37  1  0
 37 38  1  1
 38 39  1  0
 39 40  3  0
 37 41  1  0
 41 42  2  0
 41 43  1  0
  9  4  1  0
 33 29  1  0
M  END
$$$$

     RDKit          2D

 43 44  0  0  0  0  0  0  0  0999 V2000
    1.5000   -7.7942    0.0000 N   0  0  0  0  0  0  0  0  0  0  0  0
    0.7500   -9.0933    0.0000 C   0  0  0  0  0  0  0  0  0  0  0  0
    1.5000  -10.3923    0.0000 C   0  0  0  0  0  0  0  0  0  0  0  0
    3.0000  -10.3923    0.0000 C   0  0  0  0  0  0  0  0  0  0  0  0
    3.7500  -11.6913    0.0000 C   0  0  0  0  0  0  0  0  0  0  0  0
    5.2500  -11.6913    0.0000 C   0  0  0  0  0  0  0  0  0  0  0  0
    6.0000  -10.3923    0.0000 C   0  0  0  0  0  0  0  0  0  0  0  0
    5.2500   -9.0933    0.0000 C   0  0  0  0  0  0  0  0  0  0  0  0
    3.7500   -9.0933    0.0000 C   0  0  0  0  0  0  0  0  0  0  0  0
   -0.7500   -9.0933    0.0000 C   0  0  0  0  0  0  0  0  0  0  0  0
   -1.5000  -10.3923    0.0000 O   0  0  0  0  0  0  0  0  0  0  0  0
   -1.5000   -7.7942    0.0000 N   0  0  0  0  0  0  0  0  0  0  0  0
   -3.0000   -7.7942    0.0000 C   0  0  0  0  0  0  0  0  0  0  0  0
   -0.7500   -6.4952    0.0000 C   0  0  0  0  0  0  0  0  0  0  0  0
    0.7500   -6.4952    0.0000 C   0  0  0  0  0  0  0  0  0  0  0  0
    1.5000   -5.1962    0.0000 C   0  0  0  0  0  0  0  0  0  0  0  0
    3.0000   -5.1962    0.0000 C   0  0  0  0  0  0  0  0  0  0  0  0
    0.7500   -3.8971    0.0000 C   0  0  0  0  0  0  0  0  0  0  0  0
   -1.5000   -5.1962    0.0000 C   0  0  0  0  0  0  0  0  0  0  0  0
   -0.7500   -3.8971    0.0000 O   0  0  0  0  0  0  0  0  0  0  0  0
   -3.0000   -5.1962    0.0000 N   0  0  0  0  0  0  0  0  0  0  0  0
   -3.7500   -3.8971    0.0000 C   0  0  0  0  0  0  0  0  0  0  0  0
   -5.2500   -3.8971    0.0000 C   0  0  0  0  0  0  0  0  0  0  0  0
   -6.0000   -5.1962    0.0000 C   0  0  0  0  0  0  0  0  0  0  0  0
   -7.5000   -5.1962    0.0000 C   0  0  0  0  0  0  0  0  0  0  0  0
   -5.2500   -6.4952    0.0000 C   0  0  0  0  0  0  0  0  0  0  0  0
   -3.0000   -2.5981    0.0000 C   0  0  0  0  0  0  0  0  0  0  0  0
   -1.5000   -2.5981    0.0000 O   0  0  0  0  0  0  0  0  0  0  0  0
   -3.7500   -1.2990    0.0000 N   0  0  0  0  0  0  0  0  0  0  0  0
   -5.2418   -1.1422    0.0000 C   0  0  0  0  0  0  0  0  0  0  0  0
   -5.5537    0.3250    0.0000 C   0  0  0  0  0  0  0  0  0  0  0  0
   -4.2546    1.0750    0.0000 C   0  0  0  0  0  0  0  0  0  0  0  0
   -3.1399    0.0713    0.0000 C   0  0  0  0  0  0  0  0  0  0  0  0
   -1.6727    0.3831    0.0000 C   0  0  0  0  0  0  0  0  0  0  0  0
   -0.6690   -0.7316    0.0000 O   0  0  0  0  0  0  0  0  0  0  0  0
   -1.2091    1.8097    0.0000 N   0  0  0  0  0  0  0  0  0  0  0  0
    0.2581    2.1216    0.0000 C   0  0  0  0  0  0  0  0  0  0  0  0
    0.7216    3.5482    0.0000 C   0  0  0  0  0  0  0  0  0  0  0  0
    2.1888    3.8601    0.0000 C   0  0  0  0  0  0  0  0  0  0  0  0
    3.6560    4.1719    0.0000 C   0  0  0  0  0  0  0  0  0  0  0  0
    1.2618    1.0069    0.0000 C   0  0  0  0  0  0  0  0  0  0  0  0
    0.7982   -0.4197    0.0000 O   0  0  0  0  0  0  0  0  0  0  0  0
    2.7290    1.3188    0.0000 O   0  0  0  0  0  0  0  0  0  0  0  0
  2  1  1  6
  2  3  1  0
  3  4  1  0
  4  5  2  0
  5  6  1  0
  6  7  2  0
  7  8  1  0
  8  9  2  0
  2 10  1  0
 10 11  2  0
 10 12  1  0
 12 13  1  0
 12 14  1  0
 14 15  1  1
 15 16  1  0
 16 17  1  0
 16 18  1  0
 14 19  1  0
 19 20  2  0
 19 21  1  0
 21 22  1  0
 22 23  1  1
 23 24  1  0
 24 25  1  0
 24 26  1  0
 22 27  1  0
 27 28  2  0
 27 29  1  0
 29 30  1  0
 30 31  1  0
 31 32  1  0
 32 33  1  0
 33 34  1  1
 34 35  2  0
 34 36  1  0
 36 37  1  0
 37 38  1  1
 38 39  1  0
 39 40  3  0
 37 41  1  0
 41 42  2  0
 41 43  1  0
  9  4  1  0
 33 29  1  0
M  END
$$$$

     RDKit          2D

 44 45  0  0  0  0  0  0  0  0999 V2000
    3.7500   -6.4952    0.0000 N   0  0  0  0  0  0  0  0  0  0  0  0
    3.0000   -5.1962    0.0000 C   0  0  0  0  0  0  0  0  0  0  0  0
    3.0000   -7.7942    0.0000 C   0  0  0  0  0  0  0  0  0  0  0  0
    3.7500   -9.0933    0.0000 C   0  0  0  0  0  0  0  0  0  0  0  0
    5.2500   -9.0933    0.0000 C   0  0  0  0  0  0  0  0  0  0  0  0
    6.0000  -10.3923    0.0000 C   0  0  0  0  0  0  0  0  0  0  0  0
    7.5000  -10.3923    0.0000 C   0  0  0  0  0  0  0  0  0  0  0  0
    8.2500   -9.0933    0.0000 C   0  0  0  0  0  0  0  0  0  0  0  0
    7.5000   -7.7942    0.0000 C   0  0  0  0  0  0  0  0  0  0  0  0
    6.0000   -7.7942    0.0000 C   0  0  0  0  0  0  0  0  0  0  0  0
    1.5000   -7.7942    0.0000 C   0  0  0  0  0  0  0  0  0  0  0  0
    0.7500   -9.0933    0.0000 O   0  0  0  0  0  0  0  0  0  0  0  0
    0.7500   -6.4952    0.0000 N   0  0  0  0  0  0  0  0  0  0  0  0
    1.5000   -5.1962    0.0000 C   0  0  0  0  0  0  0  0  0  0  0  0
   -0.7500   -6.4952    0.0000 C   0  0  0  0  0  0  0  0  0  0  0  0
   -1.5000   -7.7942    0.0000 C   0  0  0  0  0  0  0  0  0  0  0  0
   -3.0000   -7.7942    0.0000 C   0  0  0  0  0  0  0  0  0  0  0  0
   -3.7500   -9.0933    0.0000 C   0  0  0  0  0  0  0  0  0  0  0  0
   -3.7500   -6.4952    0.0000 C   0  0  0  0  0  0  0  0  0  0  0  0
   -1.5000   -5.1962    0.0000 C   0  0  0  0  0  0  0  0  0  0  0  0
   -0.7500   -3.8971    0.0000 O   0  0  0  0  0  0  0  0  0  0  0  0
   -3.0000   -5.1962    0.0000 N   0  0  0  0  0  0  0  0  0  0  0  0
   -3.7500   -3.8971    0.0000 C   0  0  0  0  0  0  0  0  0  0  0  0
   -5.2500   -3.8971    0.0000 C   0  0  0  0  0  0  0  0  0  0  0  0
   -6.0000   -5.1962    0.0000 C   0  0  0  0  0  0  0  0  0  0  0  0
   -7.5000   -5.1962    0.0000 C   0  0  0  0  0  0  0  0  0  0  0  0
   -5.2500   -6.4952    0.0000 C   0  0  0  0  0  0  0  0  0  0  0  0
   -3.0000   -2.5981    0.0000 C   0  0  0  0  0  0  0  0  0  0  0  0
   -1.5000   -2.5981    0.0000 O   0  0  0  0  0  0  0  0  0  0  0  0
   -3.7500   -1.2990    0.0000 N   0  0  0  0  0  0  0  0  0  0  0  0
   -5.2418   -1.1422    0.0000 C   0  0  0  0  0  0  0  0  0  0  0  0
   -5.5537    0.3250    0.0000 C   0  0  0  0  0  0  0  0  0  0  0  0
   -4.2546    1.0750    0.0000 C   0  0  0  0  0  0  0  0  0  0  0  0
   -3.1399    0.0713    0.0000 C   0  0  0  0  0  0  0  0  0  0  0  0
   -1.6727    0.3831    0.0000 C   0  0  0  0  0  0  0  0  0  0  0  0
   -0.6690   -0.7316    0.0000 O   0  0  0  0  0  0  0  0  0  0  0  0
   -1.2091    1.8097    0.0000 N   0  0  0  0  0  0  0  0  0  0  0  0
    0.2581    2.1216    0.0000 C   0  0  0  0  0  0  0  0  0  0  0  0
    0.7216    3.5482    0.0000 C   0  0  0  0  0  0  0  0  0  0  0  0
    2.1888    3.8601    0.0000 C   0  0  0  0  0  0  0  0  0  0  0  0
    3.6560    4.1719    0.0000 C   0  0  0  0  0  0  0  0  0  0  0  0
    1.2618    1.0069    0.0000 C   0  0  0  0  0  0  0  0  0  0  0  0
    0.7982   -0.4197    0.0000 O   0  0  0  0  0  0  0  0  0  0  0  0
    2.7290    1.3188    0.0000 O   0  0  0  0  0  0  0  0  0  0  0  0
  1  2  1  0
  1  3  1  0
  3  4  1  1
  4  5  1  0
  5  6  2  0
  6  7  1  0
  7  8  2  0
  8  9  1  0
  9 10  2  0
  3 11  1  0
 11 12  2  0
 11 13  1  0
 13 14  1  0
 13 15  1  0
 15 16  1  6
 16 17  1  0
 17 18  1  0
 17 19  1  0
 15 20  1  0
 20 21  2  0
 20 22  1  0
 22 23  1  0
 23 24  1  1
 24 25  1  0
 25 26  1  0
 25 27  1  0
 23 28  1  0
 28 29  2  0
 28 30  1  0
 30 31  1  0
 31 32  1  0
 32 33  1  0
 33 34  1  0
 34 35  1  1
 35 36  2  0
 35 37  1  0
 37 38  1  0
 38 39  1  1
 39 40  1  0
 40 41  3  0
 38 42  1  0
 42 43  2  0
 42 44  1  0
 10  5  1  0
 34 30  1  0
M  END
$$$$

     RDKit          2D

 44 45  0  0  0  0  0  0  0  0999 V2000
    3.7500   -6.4952    0.0000 N   0  0  0  0  0  0  0  0  0  0  0  0
    3.0000   -5.1962    0.0000 C   0  0  0  0  0  0  0  0  0  0  0  0
    3.0000   -7.7942    0.0000 C   0  0  0  0  0  0  0  0  0  0  0  0
    3.7500   -9.0933    0.0000 C   0  0  0  0  0  0  0  0  0  0  0  0
    5.2500   -9.0933    0.0000 C   0  0  0  0  0  0  0  0  0  0  0  0
    6.0000  -10.3923    0.0000 C   0  0  0  0  0  0  0  0  0  0  0  0
    7.5000  -10.3923    0.0000 C   0  0  0  0  0  0  0  0  0  0  0  0
    8.2500   -9.0933    0.0000 C   0  0  0  0  0  0  0  0  0  0  0  0
    7.5000   -7.7942    0.0000 C   0  0  0  0  0  0  0  0  0  0  0  0
    6.0000   -7.7942    0.0000 C   0  0  0  0  0  0  0  0  0  0  0  0
    1.5000   -7.7942    0.0000 C   0  0  0  0  0  0  0  0  0  0  0  0
    0.7500   -9.0933    0.0000 O   0  0  0  0  0  0  0  0  0  0  0  0
    0.7500   -6.4952    0.0000 N   0  0  0  0  0  0  0  0  0  0  0  0
    1.5000   -5.1962    0.0000 C   0  0  0  0  0  0  0  0  0  0  0  0
   -0.7500   -6.4952    0.0000 C   0  0  0  0  0  0  0  0  0  0  0  0
   -1.5000   -7.7942    0.0000 C   0  0  0  0  0  0  0  0  0  0  0  0
   -3.0000   -7.7942    0.0000 C   0  0  0  0  0  0  0  0  0  0  0  0
   -3.7500   -9.0933    0.0000 C   0  0  0  0  0  0  0  0  0  0  0  0
   -3.7500   -6.4952    0.0000 C   0  0  0  0  0  0  0  0  0  0  0  0
   -1.5000   -5.1962    0.0000 C   0  0  0  0  0  0  0  0  0  0  0  0
   -0.7500   -3.8971    0.0000 O   0  0  0  0  0  0  0  0  0  0  0  0
   -3.0000   -5.1962    0.0000 N   0  0  0  0  0  0  0  0  0  0  0  0
   -3.7500   -3.8971    0.0000 C   0  0  0  0  0  0  0  0  0  0  0  0
   -5.2500   -3.8971    0.0000 C   0  0  0  0  0  0  0  0  0  0  0  0
   -6.0000   -5.1962    0.0000 C   0  0  0  0  0  0  0  0  0  0  0  0
   -7.5000   -5.1962    0.0000 C   0  0  0  0  0  0  0  0  0  0  0  0
   -5.2500   -6.4952    0.0000 C   0  0  0  0  0  0  0  0  0  0  0  0
   -3.0000   -2.5981    0.0000 C   0  0  0  0  0  0  0  0  0  0  0  0
   -1.5000   -2.5981    0.0000 O   0  0  0  0  0  0  0  0  0  0  0  0
   -3.7500   -1.2990    0.0000 N   0  0  0  0  0  0  0  0  0  0  0  0
   -5.2418   -1.1422    0.0000 C   0  0  0  0  0  0  0  0  0  0  0  0
   -5.5537    0.3250    0.0000 C   0  0  0  0  0  0  0  0  0  0  0  0
   -4.2546    1.0750    0.0000 C   0  0  0  0  0  0  0  0  0  0  0  0
   -3.1399    0.0713    0.0000 C   0  0  0  0  0  0  0  0  0  0  0  0
   -1.6727    0.3831    0.0000 C   0  0  0  0  0  0  0  0  0  0  0  0
   -0.6690   -0.7316    0.0000 O   0  0  0  0  0  0  0  0  0  0  0  0
   -1.2091    1.8097    0.0000 N   0  0  0  0  0  0  0  0  0  0  0  0
    0.2581    2.1216    0.0000 C   0  0  0  0  0  0  0  0  0  0  0  0
    0.7216    3.5482    0.0000 C   0  0  0  0  0  0  0  0  0  0  0  0
    2.1888    3.8601    0.0000 C   0  0  0  0  0  0  0  0  0  0  0  0
    3.6560    4.1719    0.0000 C   0  0  0  0  0  0  0  0  0  0  0  0
    1.2618    1.0069    0.0000 C   0  0  0  0  0  0  0  0  0  0  0  0
    0.7982   -0.4197    0.0000 O   0  0  0  0  0  0  0  0  0  0  0  0
    2.7290    1.3188    0.0000 O   0  0  0  0  0  0  0  0  0  0  0  0
  1  2  1  0
  1  3  1  0
  3  4  1  6
  4  5  1  0
  5  6  2  0
  6  7  1  0
  7  8  2  0
  8  9  1  0
  9 10  2  0
  3 11  1  0
 11 12  2  0
 11 13  1  0
 13 14  1  0
 13 15  1  0
 15 16  1  6
 16 17  1  0
 17 18  1  0
 17 19  1  0
 15 20  1  0
 20 21  2  0
 20 22  1  0
 22 23  1  0
 23 24  1  1
 24 25  1  0
 25 26  1  0
 25 27  1  0
 23 28  1  0
 28 29  2  0
 28 30  1  0
 30 31  1  0
 31 32  1  0
 32 33  1  0
 33 34  1  0
 34 35  1  1
 35 36  2  0
 35 37  1  0
 37 38  1  0
 38 39  1  1
 39 40  1  0
 40 41  3  0
 38 42  1  0
 42 43  2  0
 42 44  1  0
 10  5  1  0
 34 30  1  0
M  END
$$$$

     RDKit          2D

 39 39  0  0  0  0  0  0  0  0999 V2000
    5.0260    9.0933    0.0000 N   0  0  0  0  0  0  0  0  0  0  0  0
    5.7760    7.7942    0.0000 C   0  0  0  0  0  0  0  0  0  0  0  0
    7.2760    7.7942    0.0000 C   0  0  0  0  0  0  0  0  0  0  0  0
    8.0260    6.4952    0.0000 O   0  0  0  0  0  0  0  0  0  0  0  0
    8.0260    9.0933    0.0000 C   0  0  0  0  0  0  0  0  0  0  0  0
    5.0260    6.4952    0.0000 C   0  0  0  0  0  0  0  0  0  0  0  0
    5.7760    5.1962    0.0000 O   0  0  0  0  0  0  0  0  0  0  0  0
    3.5260    6.4952    0.0000 N   0  0  0  0  0  0  0  0  0  0  0  0
    2.7760    7.7942    0.0000 C   0  0  0  0  0  0  0  0  0  0  0  0
    2.7760    5.1962    0.0000 C   0  0  0  0  0  0  0  0  0  0  0  0
    1.2760    5.1962    0.0000 C   0  0  0  0  0  0  0  0  0  0  0  0
    0.5260    6.4952    0.0000 C   0  0  0  0  0  0  0  0  0  0  0  0
   -0.9740    6.4952    0.0000 C   0  0  0  0  0  0  0  0  0  0  0  0
    1.2760    7.7942    0.0000 C   0  0  0  0  0  0  0  0  0  0  0  0
    3.5260    3.8971    0.0000 C   0  0  0  0  0  0  0  0  0  0  0  0
    5.0260    3.8971    0.0000 O   0  0  0  0  0  0  0  0  0  0  0  0
    2.7760    2.5981    0.0000 N   0  0  0  0  0  0  0  0  0  0  0  0
    3.5260    1.2990    0.0000 C   0  0  0  0  0  0  0  0  0  0  0  0
    5.0260    1.2990    0.0000 C   0  0  0  0  0  0  0  0  0  0  0  0
    5.7760    0.0000    0.0000 C   0  0  0  0  0  0  0  0  0  0  0  0
    7.2760    0.0000    0.0000 C   0  0  0  0  0  0  0  0  0  0  0  0
    5.0260   -1.2990    0.0000 C   0  0  0  0  0  0  0  0  0  0  0  0
    2.7760   -0.0000    0.0000 C   0  0  0  0  0  0  0  0  0  0  0  0
    3.5260   -1.2990    0.0000 O   0  0  0  0  0  0  0  0  0  0  0  0
    1.2760   -0.0000    0.0000 N   0  0  0  0  0  0  0  0  0  0  0  0
    0.3943    1.2135    0.0000 C   0  0  0  0  0  0  0  0  0  0  0  0
   -1.0323    0.7500    0.0000 C   0  0  0  0  0  0  0  0  0  0  0  0
   -1.0323   -0.7500    0.0000 C   0  0  0  0  0  0  0  0  0  0  0  0
    0.3943   -1.2135    0.0000 C   0  0  0  0  0  0  0  0  0  0  0  0
    0.8578   -2.6401    0.0000 C   0  0  0  0  0  0  0  0  0  0  0  0
    2.3250   -2.9520    0.0000 O   0  0  0  0  0  0  0  0  0  0  0  0
   -0.1459   -3.7548    0.0000 N   0  0  0  0  0  0  0  0  0  0  0  0
    0.3177   -5.1814    0.0000 C   0  0  0  0  0  0  0  0  0  0  0  0
   -0.6860   -6.2961    0.0000 C   0  0  0  0  0  0  0  0  0  0  0  0
   -0.2225   -7.7227    0.0000 C   0  0  0  0  0  0  0  0  0  0  0  0
    0.2410   -9.1493    0.0000 C   0  0  0  0  0  0  0  0  0  0  0  0
    1.7849   -5.4933    0.0000 C   0  0  0  0  0  0  0  0  0  0  0  0
    2.7886   -4.3786    0.0000 O   0  0  0  0  0  0  0  0  0  0  0  0
    2.2484   -6.9199    0.0000 O   0  0  0  0  0  0  0  0  0  0  0  0
  2  1  1  1
  2  3  1  0
  3  4  1  0
  3  5  1  1
  2  6  1  0
  6  7  2  0
  6  8  1  0
  8  9  1  0
  8 10  1  0
 10 11  1  1
 11 12  1  0
 12 13  1  0
 12 14  1  0
 10 15  1  0
 15 16  2  0
 15 17  1  0
 17 18  1  0
 18 19  1  1
 19 20  1  0
 20 21  1  0
 20 22  1  0
 18 23  1  0
 23 24  2  0
 23 25  1  0
 25 26  1  0
 26 27  1  0
 27 28  1  0
 28 29  1  0
 29 30  1  6
 30 31  2  0
 30 32  1  0
 32 33  1  0
 33 34  1  6
 34 35  1  0
 35 36  3  0
 33 37  1  0
 37 38  2  0
 37 39  1  0
 29 25  1  0
M  END
$$$$

     RDKit          2D

 39 39  0  0  0  0  0  0  0  0999 V2000
    5.0260    9.0933    0.0000 N   0  0  0  0  0  0  0  0  0  0  0  0
    5.7760    7.7942    0.0000 C   0  0  0  0  0  0  0  0  0  0  0  0
    7.2760    7.7942    0.0000 C   0  0  0  0  0  0  0  0  0  0  0  0
    8.0260    6.4952    0.0000 O   0  0  0  0  0  0  0  0  0  0  0  0
    8.0260    9.0933    0.0000 C   0  0  0  0  0  0  0  0  0  0  0  0
    5.0260    6.4952    0.0000 C   0  0  0  0  0  0  0  0  0  0  0  0
    5.7760    5.1962    0.0000 O   0  0  0  0  0  0  0  0  0  0  0  0
    3.5260    6.4952    0.0000 N   0  0  0  0  0  0  0  0  0  0  0  0
    2.7760    7.7942    0.0000 C   0  0  0  0  0  0  0  0  0  0  0  0
    2.7760    5.1962    0.0000 C   0  0  0  0  0  0  0  0  0  0  0  0
    1.2760    5.1962    0.0000 C   0  0  0  0  0  0  0  0  0  0  0  0
    0.5260    6.4952    0.0000 C   0  0  0  0  0  0  0  0  0  0  0  0
   -0.9740    6.4952    0.0000 C   0  0  0  0  0  0  0  0  0  0  0  0
    1.2760    7.7942    0.0000 C   0  0  0  0  0  0  0  0  0  0  0  0
    3.5260    3.8971    0.0000 C   0  0  0  0  0  0  0  0  0  0  0  0
    5.0260    3.8971    0.0000 O   0  0  0  0  0  0  0  0  0  0  0  0
    2.7760    2.5981    0.0000 N   0  0  0  0  0  0  0  0  0  0  0  0
    3.5260    1.2990    0.0000 C   0  0  0  0  0  0  0  0  0  0  0  0
    5.0260    1.2990    0.0000 C   0  0  0  0  0  0  0  0  0  0  0  0
    5.7760    0.0000    0.0000 C   0  0  0  0  0  0  0  0  0  0  0  0
    7.2760    0.0000    0.0000 C   0  0  0  0  0  0  0  0  0  0  0  0
    5.0260   -1.2990    0.0000 C   0  0  0  0  0  0  0  0  0  0  0  0
    2.7760   -0.0000    0.0000 C   0  0  0  0  0  0  0  0  0  0  0  0
    3.5260   -1.2990    0.0000 O   0  0  0  0  0  0  0  0  0  0  0  0
    1.2760   -0.0000    0.0000 N   0  0  0  0  0  0  0  0  0  0  0  0
    0.3943    1.2135    0.0000 C   0  0  0  0  0  0  0  0  0  0  0  0
   -1.0323    0.7500    0.0000 C   0  0  0  0  0  0  0  0  0  0  0  0
   -1.0323   -0.7500    0.0000 C   0  0  0  0  0  0  0  0  0  0  0  0
    0.3943   -1.2135    0.0000 C   0  0  0  0  0  0  0  0  0  0  0  0
    0.8578   -2.6401    0.0000 C   0  0  0  0  0  0  0  0  0  0  0  0
    2.3250   -2.9520    0.0000 O   0  0  0  0  0  0  0  0  0  0  0  0
   -0.1459   -3.7548    0.0000 N   0  0  0  0  0  0  0  0  0  0  0  0
    0.3177   -5.1814    0.0000 C   0  0  0  0  0  0  0  0  0  0  0  0
   -0.6860   -6.2961    0.0000 C   0  0  0  0  0  0  0  0  0  0  0  0
   -0.2225   -7.7227    0.0000 C   0  0  0  0  0  0  0  0  0  0  0  0
    0.2410   -9.1493    0.0000 C   0  0  0  0  0  0  0  0  0  0  0  0
    1.7849   -5.4933    0.0000 C   0  0  0  0  0  0  0  0  0  0  0  0
    2.7886   -4.3786    0.0000 O   0  0  0  0  0  0  0  0  0  0  0  0
    2.2484   -6.9199    0.0000 O   0  0  0  0  0  0  0  0  0  0  0  0
  2  1  1  6
  2  3  1  0
  3  4  1  0
  3  5  1  1
  2  6  1  0
  6  7  2  0
  6  8  1  0
  8  9  1  0
  8 10  1  0
 10 11  1  1
 11 12  1  0
 12 13  1  0
 12 14  1  0
 10 15  1  0
 15 16  2  0
 15 17  1  0
 17 18  1  0
 18 19  1  1
 19 20  1  0
 20 21  1  0
 20 22  1  0
 18 23  1  0
 23 24  2  0
 23 25  1  0
 25 26  1  0
 26 27  1  0
 27 28  1  0
 28 29  1  0
 29 30  1  6
 30 31  2  0
 30 32  1  0
 32 33  1  0
 33 34  1  6
 34 35  1  0
 35 36  3  0
 33 37  1  0
 37 38  2  0
 37 39  1  0
 29 25  1  0
M  END
$$$$

     RDKit          2D

 40 40  0  0  0  0  0  0  0  0999 V2000
    5.0260    9.0933    0.0000 N   0  0  0  0  0  0  0  0  0  0  0  0
    5.7760   10.3923    0.0000 C   0  0  0  0  0  0  0  0  0  0  0  0
    5.7760    7.7942    0.0000 C   0  0  0  0  0  0  0  0  0  0  0  0
    7.2760    7.7942    0.0000 C   0  0  0  0  0  0  0  0  0  0  0  0
    8.0260    6.4952    0.0000 O   0  0  0  0  0  0  0  0  0  0  0  0
    8.0260    9.0933    0.0000 C   0  0  0  0  0  0  0  0  0  0  0  0
    5.0260    6.4952    0.0000 C   0  0  0  0  0  0  0  0  0  0  0  0
    5.7760    5.1962    0.0000 O   0  0  0  0  0  0  0  0  0  0  0  0
    3.5260    6.4952    0.0000 N   0  0  0  0  0  0  0  0  0  0  0  0
    2.7760    7.7942    0.0000 C   0  0  0  0  0  0  0  0  0  0  0  0
    2.7760    5.1962    0.0000 C   0  0  0  0  0  0  0  0  0  0  0  0
    1.2760    5.1962    0.0000 C   0  0  0  0  0  0  0  0  0  0  0  0
    0.5260    6.4952    0.0000 C   0  0  0  0  0  0  0  0  0  0  0  0
   -0.9740    6.4952    0.0000 C   0  0  0  0  0  0  0  0  0  0  0  0
    1.2760    7.7942    0.0000 C   0  0  0  0  0  0  0  0  0  0  0  0
    3.5260    3.8971    0.0000 C   0  0  0  0  0  0  0  0  0  0  0  0
    5.0260    3.8971    0.0000 O   0  0  0  0  0  0  0  0  0  0  0  0
    2.7760    2.5981    0.0000 N   0  0  0  0  0  0  0  0  0  0  0  0
    3.5260    1.2990    0.0000 C   0  0  0  0  0  0  0  0  0  0  0  0
    5.0260    1.2990    0.0000 C   0  0  0  0  0  0  0  0  0  0  0  0
    5.7760    0.0000    0.0000 C   0  0  0  0  0  0  0  0  0  0  0  0
    5.0260   -1.2990    0.0000 C   0  0  0  0  0  0  0  0  0  0  0  0
    7.2760    0.0000    0.0000 C   0  0  0  0  0  0  0  0  0  0  0  0
    2.7760   -0.0000    0.0000 C   0  0  0  0  0  0  0  0  0  0  0  0
    3.5260   -1.2990    0.0000 O   0  0  0  0  0  0  0  0  0  0  0  0
    1.2760   -0.0000    0.0000 N   0  0  0  0  0  0  0  0  0  0  0  0
    0.3943    1.2135    0.0000 C   0  0  0  0  0  0  0  0  0  0  0  0
   -1.0323    0.7500    0.0000 C   0  0  0  0  0  0  0  0  0  0  0  0
   -1.0323   -0.7500    0.0000 C   0  0  0  0  0  0  0  0  0  0  0  0
    0.3943   -1.2135    0.0000 C   0  0  0  0  0  0  0  0  0  0  0  0
    0.8578   -2.6401    0.0000 C   0  0  0  0  0  0  0  0  0  0  0  0
    2.3250   -2.9520    0.0000 O   0  0  0  0  0  0  0  0  0  0  0  0
   -0.1459   -3.7548    0.0000 N   0  0  0  0  0  0  0  0  0  0  0  0
    0.3177   -5.1814    0.0000 C   0  0  0  0  0  0  0  0  0  0  0  0
   -0.6860   -6.2961    0.0000 C   0  0  0  0  0  0  0  0  0  0  0  0
   -0.2225   -7.7227    0.0000 C   0  0  0  0  0  0  0  0  0  0  0  0
    0.2410   -9.1493    0.0000 C   0  0  0  0  0  0  0  0  0  0  0  0
    1.7849   -5.4933    0.0000 C   0  0  0  0  0  0  0  0  0  0  0  0
    2.7886   -4.3786    0.0000 O   0  0  0  0  0  0  0  0  0  0  0  0
    2.2484   -6.9199    0.0000 O   0  0  0  0  0  0  0  0  0  0  0  0
  1  2  1  0
  3  1  1  1
  3  4  1  0
  4  5  1  0
  4  6  1  1
  3  7  1  0
  7  8  2  0
  7  9  1  0
  9 10  1  0
  9 11  1  0
 11 12  1  1
 12 13  1  0
 13 14  1  0
 13 15  1  0
 11 16  1  0
 16 17  2  0
 16 18  1  0
 18 19  1  0
 19 20  1  1
 20 21  1  0
 21 22  1  0
 21 23  1  0
 19 24  1  0
 24 25  2  0
 24 26  1  0
 26 27  1  0
 27 28  1  0
 28 29  1  0
 29 30  1  0
 30 31  1  6
 31 32  2  0
 31 33  1  0
 33 34  1  0
 34 35  1  6
 35 36  1  0
 36 37  3  0
 34 38  1  0
 38 39  2  0
 38 40  1  0
 30 26  1  0
M  END
$$$$

     RDKit          2D

 40 40  0  0  0  0  0  0  0  0999 V2000
    5.0260    9.0933    0.0000 N   0  0  0  0  0  0  0  0  0  0  0  0
    5.7760   10.3923    0.0000 C   0  0  0  0  0  0  0  0  0  0  0  0
    5.7760    7.7942    0.0000 C   0  0  0  0  0  0  0  0  0  0  0  0
    7.2760    7.7942    0.0000 C   0  0  0  0  0  0  0  0  0  0  0  0
    8.0260    6.4952    0.0000 O   0  0  0  0  0  0  0  0  0  0  0  0
    8.0260    9.0933    0.0000 C   0  0  0  0  0  0  0  0  0  0  0  0
    5.0260    6.4952    0.0000 C   0  0  0  0  0  0  0  0  0  0  0  0
    5.7760    5.1962    0.0000 O   0  0  0  0  0  0  0  0  0  0  0  0
    3.5260    6.4952    0.0000 N   0  0  0  0  0  0  0  0  0  0  0  0
    2.7760    7.7942    0.0000 C   0  0  0  0  0  0  0  0  0  0  0  0
    2.7760    5.1962    0.0000 C   0  0  0  0  0  0  0  0  0  0  0  0
    1.2760    5.1962    0.0000 C   0  0  0  0  0  0  0  0  0  0  0  0
    0.5260    6.4952    0.0000 C   0  0  0  0  0  0  0  0  0  0  0  0
   -0.9740    6.4952    0.0000 C   0  0  0  0  0  0  0  0  0  0  0  0
    1.2760    7.7942    0.0000 C   0  0  0  0  0  0  0  0  0  0  0  0
    3.5260    3.8971    0.0000 C   0  0  0  0  0  0  0  0  0  0  0  0
    5.0260    3.8971    0.0000 O   0  0  0  0  0  0  0  0  0  0  0  0
    2.7760    2.5981    0.0000 N   0  0  0  0  0  0  0  0  0  0  0  0
    3.5260    1.2990    0.0000 C   0  0  0  0  0  0  0  0  0  0  0  0
    5.0260    1.2990    0.0000 C   0  0  0  0  0  0  0  0  0  0  0  0
    5.7760    0.0000    0.0000 C   0  0  0  0  0  0  0  0  0  0  0  0
    5.0260   -1.2990    0.0000 C   0  0  0  0  0  0  0  0  0  0  0  0
    7.2760    0.0000    0.0000 C   0  0  0  0  0  0  0  0  0  0  0  0
    2.7760   -0.0000    0.0000 C   0  0  0  0  0  0  0  0  0  0  0  0
    3.5260   -1.2990    0.0000 O   0  0  0  0  0  0  0  0  0  0  0  0
    1.2760   -0.0000    0.0000 N   0  0  0  0  0  0  0  0  0  0  0  0
    0.3943    1.2135    0.0000 C   0  0  0  0  0  0  0  0  0  0  0  0
   -1.0323    0.7500    0.0000 C   0  0  0  0  0  0  0  0  0  0  0  0
   -1.0323   -0.7500    0.0000 C   0  0  0  0  0  0  0  0  0  0  0  0
    0.3943   -1.2135    0.0000 C   0  0  0  0  0  0  0  0  0  0  0  0
    0.8578   -2.6401    0.0000 C   0  0  0  0  0  0  0  0  0  0  0  0
    2.3250   -2.9520    0.0000 O   0  0  0  0  0  0  0  0  0  0  0  0
   -0.1459   -3.7548    0.0000 N   0  0  0  0  0  0  0  0  0  0  0  0
    0.3177   -5.1814    0.0000 C   0  0  0  0  0  0  0  0  0  0  0  0
   -0.6860   -6.2961    0.0000 C   0  0  0  0  0  0  0  0  0  0  0  0
   -0.2225   -7.7227    0.0000 C   0  0  0  0  0  0  0  0  0  0  0  0
    0.2410   -9.1493    0.0000 C   0  0  0  0  0  0  0  0  0  0  0  0
    1.7849   -5.4933    0.0000 C   0  0  0  0  0  0  0  0  0  0  0  0
    2.7886   -4.3786    0.0000 O   0  0  0  0  0  0  0  0  0  0  0  0
    2.2484   -6.9199    0.0000 O   0  0  0  0  0  0  0  0  0  0  0  0
  1  2  1  0
  3  1  1  6
  3  4  1  0
  4  5  1  0
  4  6  1  1
  3  7  1  0
  7  8  2  0
  7  9  1  0
  9 10  1  0
  9 11  1  0
 11 12  1  1
 12 13  1  0
 13 14  1  0
 13 15  1  0
 11 16  1  0
 16 17  2  0
 16 18  1  0
 18 19  1  0
 19 20  1  1
 20 21  1  0
 21 22  1  0
 21 23  1  0
 19 24  1  0
 24 25  2  0
 24 26  1  0
 26 27  1  0
 27 28  1  0
 28 29  1  0
 29 30  1  0
 30 31  1  6
 31 32  2  0
 31 33  1  0
 33 34  1  0
 34 35  1  6
 35 36  1  0
 36 37  3  0
 34 38  1  0
 38 39  2  0
 38 40  1  0
 30 26  1  0
M  END
$$$$

     RDKit          2D

 40 40  0  0  0  0  0  0  0  0999 V2000
   -1.7240    2.5981    0.0000 N   0  0  0  0  0  0  0  0  0  0  0  0
   -3.2240    2.5981    0.0000 C   0  0  0  0  0  0  0  0  0  0  0  0
   -3.9740    1.2990    0.0000 C   0  0  0  0  0  0  0  0  0  0  0  0
   -5.4740    1.2990    0.0000 C   0  0  0  0  0  0  0  0  0  0  0  0
   -3.2240   -0.0000    0.0000 C   0  0  0  0  0  0  0  0  0  0  0  0
   -0.9740    3.8971    0.0000 C   0  0  0  0  0  0  0  0  0  0  0  0
    0.5260    3.8971    0.0000 C   0  0  0  0  0  0  0  0  0  0  0  0
    1.2760    2.5981    0.0000 O   0  0  0  0  0  0  0  0  0  0  0  0
    1.2760    5.1962    0.0000 N   0  0  0  0  0  0  0  0  0  0  0  0
    0.5260    6.4952    0.0000 C   0  0  0  0  0  0  0  0  0  0  0  0
    2.7760    5.1962    0.0000 C   0  0  0  0  0  0  0  0  0  0  0  0
    3.5260    6.4952    0.0000 C   0  0  0  0  0  0  0  0  0  0  0  0
    2.7760    7.7942    0.0000 C   0  0  0  0  0  0  0  0  0  0  0  0
    3.5260    9.0933    0.0000 C   0  0  0  0  0  0  0  0  0  0  0  0
    1.2760    7.7942    0.0000 C   0  0  0  0  0  0  0  0  0  0  0  0
    3.5260    3.8971    0.0000 C   0  0  0  0  0  0  0  0  0  0  0  0
    5.0260    3.8971    0.0000 O   0  0  0  0  0  0  0  0  0  0  0  0
    2.7760    2.5981    0.0000 N   0  0  0  0  0  0  0  0  0  0  0  0
    3.5260    1.2990    0.0000 C   0  0  0  0  0  0  0  0  0  0  0  0
    5.0260    1.2990    0.0000 C   0  0  0  0  0  0  0  0  0  0  0  0
    5.7760    0.0000    0.0000 C   0  0  0  0  0  0  0  0  0  0  0  0
    5.0260   -1.2990    0.0000 C   0  0  0  0  0  0  0  0  0  0  0  0
    7.2760    0.0000    0.0000 C   0  0  0  0  0  0  0  0  0  0  0  0
    2.7760    0.0000    0.0000 C   0  0  0  0  0  0  0  0  0  0  0  0
    3.5260   -1.2990    0.0000 O   0  0  0  0  0  0  0  0  0  0  0  0
    1.2760    0.0000    0.0000 N   0  0  0  0  0  0  0  0  0  0  0  0
    0.3943    1.2135    0.0000 C   0  0  0  0  0  0  0  0  0  0  0  0
   -1.0323    0.7500    0.0000 C   0  0  0  0  0  0  0  0  0  0  0  0
   -1.0323   -0.7500    0.0000 C   0  0  0  0  0  0  0  0  0  0  0  0
    0.3943   -1.2135    0.0000 C   0  0  0  0  0  0  0  0  0  0  0  0
    0.8578   -2.6401    0.0000 C   0  0  0  0  0  0  0  0  0  0  0  0
    2.3250   -2.9520    0.0000 O   0  0  0  0  0  0  0  0  0  0  0  0
   -0.1459   -3.7548    0.0000 N   0  0  0  0  0  0  0  0  0  0  0  0
    0.3177   -5.1814    0.0000 C   0  0  0  0  0  0  0  0  0  0  0  0
   -0.6860   -6.2961    0.0000 C   0  0  0  0  0  0  0  0  0  0  0  0
   -0.2225   -7.7227    0.0000 C   0  0  0  0  0  0  0  0  0  0  0  0
    0.2410   -9.1493    0.0000 C   0  0  0  0  0  0  0  0  0  0  0  0
    1.7849   -5.4933    0.0000 C   0  0  0  0  0  0  0  0  0  0  0  0
    2.7886   -4.3786    0.0000 O   0  0  0  0  0  0  0  0  0  0  0  0
    2.2484   -6.9199    0.0000 O   0  0  0  0  0  0  0  0  0  0  0  0
  1  2  1  0
  2  3  1  0
  3  4  1  0
  3  5  1  0
  1  6  1  0
  6  7  1  0
  7  8  2  0
  7  9  1  0
  9 10  1  0
  9 11  1  0
 11 12  1  6
 12 13  1  0
 13 14  1  0
 13 15  1  0
 11 16  1  0
 16 17  2  0
 16 18  1  0
 18 19  1  0
 19 20  1  1
 20 21  1  0
 21 22  1  0
 21 23  1  0
 19 24  1  0
 24 25  2  0
 24 26  1  0
 26 27  1  0
 27 28  1  0
 28 29  1  0
 29 30  1  0
 30 31  1  6
 31 32  2  0
 31 33  1  0
 33 34  1  0
 34 35  1  6
 35 36  1  0
 36 37  3  0
 34 38  1  0
 38 39  2  0
 38 40  1  0
 30 26  1  0
M  END
$$$$

     RDKit          2D

 43 43  0  0  0  0  0  0  0  0999 V2000
   -1.7240    2.5981    0.0000 N   0  0  0  0  0  0  0  0  0  0  0  0
   -3.2240    2.5981    0.0000 C   0  0  0  0  0  0  0  0  0  0  0  0
   -3.9740    1.2990    0.0000 C   0  0  0  0  0  0  0  0  0  0  0  0
   -5.4740    1.2990    0.0000 C   0  0  0  0  0  0  0  0  0  0  0  0
   -6.2240   -0.0000    0.0000 O   0  0  0  0  0  0  0  0  0  0  0  0
   -7.7240   -0.0000    0.0000 C   0  0  0  0  0  0  0  0  0  0  0  0
   -8.4740   -1.2990    0.0000 C   0  0  0  0  0  0  0  0  0  0  0  0
   -8.4740    1.2990    0.0000 C   0  0  0  0  0  0  0  0  0  0  0  0
   -0.9740    3.8971    0.0000 C   0  0  0  0  0  0  0  0  0  0  0  0
    0.5260    3.8971    0.0000 C   0  0  0  0  0  0  0  0  0  0  0  0
    1.2760    2.5981    0.0000 O   0  0  0  0  0  0  0  0  0  0  0  0
    1.2760    5.1962    0.0000 N   0  0  0  0  0  0  0  0  0  0  0  0
    0.5260    6.4952    0.0000 C   0  0  0  0  0  0  0  0  0  0  0  0
    2.7760    5.1962    0.0000 C   0  0  0  0  0  0  0  0  0  0  0  0
    3.5260    6.4952    0.0000 C   0  0  0  0  0  0  0  0  0  0  0  0
    2.7760    7.7942    0.0000 C   0  0  0  0  0  0  0  0  0  0  0  0
    3.5260    9.0933    0.0000 C   0  0  0  0  0  0  0  0  0  0  0  0
    1.2760    7.7942    0.0000 C   0  0  0  0  0  0  0  0  0  0  0  0
    3.5260    3.8971    0.0000 C   0  0  0  0  0  0  0  0  0  0  0  0
    5.0260    3.8971    0.0000 O   0  0  0  0  0  0  0  0  0  0  0  0
    2.7760    2.5981    0.0000 N   0  0  0  0  0  0  0  0  0  0  0  0
    3.5260    1.2990    0.0000 C   0  0  0  0  0  0  0  0  0  0  0  0
    5.0260    1.2990    0.0000 C   0  0  0  0  0  0  0  0  0  0  0  0
    5.7760    0.0000    0.0000 C   0  0  0  0  0  0  0  0  0  0  0  0
    7.2760    0.0000    0.0000 C   0  0  0  0  0  0  0  0  0  0  0  0
    5.0260   -1.2990    0.0000 C   0  0  0  0  0  0  0  0  0  0  0  0
    2.7760    0.0000    0.0000 C   0  0  0  0  0  0  0  0  0  0  0  0
    3.5260   -1.2990    0.0000 O   0  0  0  0  0  0  0  0  0  0  0  0
    1.2760    0.0000    0.0000 N   0  0  0  0  0  0  0  0  0  0  0  0
    0.3943    1.2135    0.0000 C   0  0  0  0  0  0  0  0  0  0  0  0
   -1.0323    0.7500    0.0000 C   0  0  0  0  0  0  0  0  0  0  0  0
   -1.0323   -0.7500    0.0000 C   0  0  0  0  0  0  0  0  0  0  0  0
    0.3943   -1.2135    0.0000 C   0  0  0  0  0  0  0  0  0  0  0  0
    0.8578   -2.6401    0.0000 C   0  0  0  0  0  0  0  0  0  0  0  0
    2.3250   -2.9520    0.0000 O   0  0  0  0  0  0  0  0  0  0  0  0
   -0.1459   -3.7548    0.0000 N   0  0  0  0  0  0  0  0  0  0  0  0
    0.3177   -5.1814    0.0000 C   0  0  0  0  0  0  0  0  0  0  0  0
   -0.6860   -6.2961    0.0000 C   0  0  0  0  0  0  0  0  0  0  0  0
   -0.2225   -7.7227    0.0000 C   0  0  0  0  0  0  0  0  0  0  0  0
    0.2410   -9.1493    0.0000 C   0  0  0  0  0  0  0  0  0  0  0  0
    1.7849   -5.4933    0.0000 C   0  0  0  0  0  0  0  0  0  0  0  0
    2.7886   -4.3786    0.0000 O   0  0  0  0  0  0  0  0  0  0  0  0
    2.2484   -6.9199    0.0000 O   0  0  0  0  0  0  0  0  0  0  0  0
  1  2  1  0
  2  3  1  0
  3  4  1  0
  4  5  1  0
  5  6  1  0
  6  7  1  0
  6  8  1  0
  1  9  1  0
  9 10  1  0
 10 11  2  0
 10 12  1  0
 12 13  1  0
 12 14  1  0
 14 15  1  6
 15 16  1  0
 16 17  1  0
 16 18  1  0
 14 19  1  0
 19 20  2  0
 19 21  1  0
 21 22  1  0
 22 23  1  1
 23 24  1  0
 24 25  1  0
 24 26  1  0
 22 27  1  0
 27 28  2  0
 27 29  1  0
 29 30  1  0
 30 31  1  0
 31 32  1  0
 32 33  1  0
 33 34  1  6
 34 35  2  0
 34 36  1  0
 36 37  1  0
 37 38  1  6
 38 39  1  0
 39 40  3  0
 37 41  1  0
 41 42  2  0
 41 43  1  0
 33 29  1  0
M  END
$$$$

     RDKit          2D

 45 46  0  0  0  0  0  0  0  0999 V2000
    0.7500   -6.4952    0.0000 N   0  0  0  0  0  0  0  0  0  0  0  0
    1.5000   -5.1962    0.0000 C   0  0  0  0  0  0  0  0  0  0  0  0
    0.7500   -3.8971    0.0000 C   0  0  0  0  0  0  0  0  0  0  0  0
    1.5000   -2.5981    0.0000 O   0  0  0  0  0  0  0  0  0  0  0  0
    0.7500   -1.2990    0.0000 C   0  0  0  0  0  0  0  0  0  0  0  0
    1.5000    0.0000    0.0000 C   0  0  0  0  0  0  0  0  0  0  0  0
    0.7500    1.2990    0.0000 C   0  0  0  0  0  0  0  0  0  0  0  0
   -0.7500    1.2990    0.0000 C   0  0  0  0  0  0  0  0  0  0  0  0
   -1.5000    0.0000    0.0000 C   0  0  0  0  0  0  0  0  0  0  0  0
   -0.7500   -1.2990    0.0000 C   0  0  0  0  0  0  0  0  0  0  0  0
    1.5000   -7.7942    0.0000 C   0  0  0  0  0  0  0  0  0  0  0  0
    0.7500   -9.0933    0.0000 C   0  0  0  0  0  0  0  0  0  0  0  0
   -0.7500   -9.0933    0.0000 O   0  0  0  0  0  0  0  0  0  0  0  0
    1.5000  -10.3923    0.0000 N   0  0  0  0  0  0  0  0  0  0  0  0
    0.7500  -11.6913    0.0000 C   0  0  0  0  0  0  0  0  0  0  0  0
    3.0000  -10.3923    0.0000 C   0  0  0  0  0  0  0  0  0  0  0  0
    3.7500  -11.6913    0.0000 C   0  0  0  0  0  0  0  0  0  0  0  0
    5.2500  -11.6913    0.0000 C   0  0  0  0  0  0  0  0  0  0  0  0
    6.0000  -12.9904    0.0000 C   0  0  0  0  0  0  0  0  0  0  0  0
    6.0000  -10.3923    0.0000 C   0  0  0  0  0  0  0  0  0  0  0  0
    3.7500   -9.0933    0.0000 C   0  0  0  0  0  0  0  0  0  0  0  0
    3.0000   -7.7942    0.0000 O   0  0  0  0  0  0  0  0  0  0  0  0
    5.2500   -9.0933    0.0000 N   0  0  0  0  0  0  0  0  0  0  0  0
    6.0000   -7.7942    0.0000 C   0  0  0  0  0  0  0  0  0  0  0  0
    7.5000   -7.7942    0.0000 C   0  0  0  0  0  0  0  0  0  0  0  0
    8.2500   -9.0933    0.0000 C   0  0  0  0  0  0  0  0  0  0  0  0
    9.7500   -9.0933    0.0000 C   0  0  0  0  0  0  0  0  0  0  0  0
    7.5000  -10.3923    0.0000 C   0  0  0  0  0  0  0  0  0  0  0  0
    5.2500   -6.4952    0.0000 C   0  0  0  0  0  0  0  0  0  0  0  0
    3.7500   -6.4952    0.0000 O   0  0  0  0  0  0  0  0  0  0  0  0
    6.0000   -5.1962    0.0000 N   0  0  0  0  0  0  0  0  0  0  0  0
    5.3899   -3.8258    0.0000 C   0  0  0  0  0  0  0  0  0  0  0  0
    6.5046   -2.8221    0.0000 C   0  0  0  0  0  0  0  0  0  0  0  0
    7.8037   -3.5721    0.0000 C   0  0  0  0  0  0  0  0  0  0  0  0
    7.4918   -5.0394    0.0000 C   0  0  0  0  0  0  0  0  0  0  0  0
    8.4955   -6.1541    0.0000 C   0  0  0  0  0  0  0  0  0  0  0  0
    8.3909   -7.6504    0.0000 O   0  0  0  0  0  0  0  0  0  0  0  0
    9.9627   -5.8422    0.0000 N   0  0  0  0  0  0  0  0  0  0  0  0
   10.9664   -6.9569    0.0000 C   0  0  0  0  0  0  0  0  0  0  0  0
   12.4336   -6.6451    0.0000 C   0  0  0  0  0  0  0  0  0  0  0  0
   13.4373   -7.7598    0.0000 C   0  0  0  0  0  0  0  0  0  0  0  0
   14.4410   -8.8745    0.0000 C   0  0  0  0  0  0  0  0  0  0  0  0
   10.5029   -8.3835    0.0000 C   0  0  0  0  0  0  0  0  0  0  0  0
    9.0356   -8.6954    0.0000 O   0  0  0  0  0  0  0  0  0  0  0  0
   11.5066   -9.4982    0.0000 O   0  0  0  0  0  0  0  0  0  0  0  0
  1  2  1  0
  2  3  1  0
  3  4  1  0
  4  5  1  0
  5  6  2  0
  6  7  1  0
  7  8  2  0
  8  9  1  0
  9 10  2  0
  1 11  1  0
 11 12  1  0
 12 13  2  0
 12 14  1  0
 14 15  1  0
 14 16  1  0
 16 17  1  1
 17 18  1  0
 18 19  1  0
 18 20  1  0
 16 21  1  0
 21 22  2  0
 21 23  1  0
 23 24  1  0
 24 25  1  6
 25 26  1  0
 26 27  1  0
 26 28  1  0
 24 29  1  0
 29 30  2  0
 29 31  1  0
 31 32  1  0
 32 33  1  0
 33 34  1  0
 34 35  1  0
 35 36  1  1
 36 37  2  0
 36 38  1  0
 38 39  1  0
 39 40  1  1
 40 41  1  0
 41 42  3  0
 39 43  1  0
 43 44  2  0
 43 45  1  0
 10  5  1  0
 35 31  1  0
M  END
$$$$

     RDKit          2D

 48 49  0  0  0  0  0  0  0  0999 V2000
    1.5000  -12.9904    0.0000 N   0  0  0  0  0  0  0  0  0  0  0  0
    0.7500  -14.2894    0.0000 C   0  0  0  0  0  0  0  0  0  0  0  0
    1.5000  -15.5885    0.0000 C   0  0  0  0  0  0  0  0  0  0  0  0
    0.7500  -16.8875    0.0000 C   0  0  0  0  0  0  0  0  0  0  0  0
    1.5000  -18.1865    0.0000 C   0  0  0  0  0  0  0  0  0  0  0  0
    0.7500  -19.4856    0.0000 C   0  0  0  0  0  0  0  0  0  0  0  0
   -0.7500  -19.4856    0.0000 C   0  0  0  0  0  0  0  0  0  0  0  0
   -1.5000  -18.1865    0.0000 C   0  0  0  0  0  0  0  0  0  0  0  0
   -3.0000  -18.1865    0.0000 O   0  0  0  0  0  0  0  0  0  0  0  0
   -3.7500  -16.8875    0.0000 C   0  0  0  0  0  0  0  0  0  0  0  0
   -0.7500  -16.8875    0.0000 C   0  0  0  0  0  0  0  0  0  0  0  0
   -1.5000  -20.7846    0.0000 O   0  0  0  0  0  0  0  0  0  0  0  0
   -0.7500  -22.0836    0.0000 C   0  0  0  0  0  0  0  0  0  0  0  0
    0.7500  -11.6913    0.0000 C   0  0  0  0  0  0  0  0  0  0  0  0
    1.5000  -10.3923    0.0000 C   0  0  0  0  0  0  0  0  0  0  0  0
    3.0000  -10.3923    0.0000 O   0  0  0  0  0  0  0  0  0  0  0  0
    0.7500   -9.0933    0.0000 N   0  0  0  0  0  0  0  0  0  0  0  0
    1.5000   -7.7942    0.0000 C   0  0  0  0  0  0  0  0  0  0  0  0
   -0.7500   -9.0933    0.0000 C   0  0  0  0  0  0  0  0  0  0  0  0
   -1.5000  -10.3923    0.0000 C   0  0  0  0  0  0  0  0  0  0  0  0
   -3.0000  -10.3923    0.0000 C   0  0  0  0  0  0  0  0  0  0  0  0
   -3.7500  -11.6913    0.0000 C   0  0  0  0  0  0  0  0  0  0  0  0
   -3.7500   -9.0933    0.0000 C   0  0  0  0  0  0  0  0  0  0  0  0
   -1.5000   -7.7942    0.0000 C   0  0  0  0  0  0  0  0  0  0  0  0
   -0.7500   -6.4952    0.0000 O   0  0  0  0  0  0  0  0  0  0  0  0
   -3.0000   -7.7942    0.0000 N   0  0  0  0  0  0  0  0  0  0  0  0
   -3.7500   -6.4952    0.0000 C   0  0  0  0  0  0  0  0  0  0  0  0
   -5.2500   -6.4952    0.0000 C   0  0  0  0  0  0  0  0  0  0  0  0
   -6.0000   -7.7942    0.0000 C   0  0  0  0  0  0  0  0  0  0  0  0
   -7.5000   -7.7942    0.0000 C   0  0  0  0  0  0  0  0  0  0  0  0
   -5.2500   -9.0933    0.0000 C   0  0  0  0  0  0  0  0  0  0  0  0
   -3.0000   -5.1962    0.0000 C   0  0  0  0  0  0  0  0  0  0  0  0
   -1.5000   -5.1962    0.0000 O   0  0  0  0  0  0  0  0  0  0  0  0
   -3.7500   -3.8971    0.0000 N   0  0  0  0  0  0  0  0  0  0  0  0
   -3.1399   -2.5268    0.0000 C   0  0  0  0  0  0  0  0  0  0  0  0
   -4.2546   -1.5231    0.0000 C   0  0  0  0  0  0  0  0  0  0  0  0
   -5.5537   -2.2731    0.0000 C   0  0  0  0  0  0  0  0  0  0  0  0
   -5.2418   -3.7403    0.0000 C   0  0  0  0  0  0  0  0  0  0  0  0
   -6.2455   -4.8550    0.0000 C   0  0  0  0  0  0  0  0  0  0  0  0
   -6.1409   -6.3514    0.0000 O   0  0  0  0  0  0  0  0  0  0  0  0
   -7.7127   -4.5432    0.0000 N   0  0  0  0  0  0  0  0  0  0  0  0
   -8.7164   -5.6579    0.0000 C   0  0  0  0  0  0  0  0  0  0  0  0
  -10.1836   -5.3460    0.0000 C   0  0  0  0  0  0  0  0  0  0  0  0
  -11.1873   -6.4607    0.0000 C   0  0  0  0  0  0  0  0  0  0  0  0
  -12.1910   -7.5755    0.0000 C   0  0  0  0  0  0  0  0  0  0  0  0
   -8.2529   -7.0845    0.0000 C   0  0  0  0  0  0  0  0  0  0  0  0
   -6.7856   -7.3963    0.0000 O   0  0  0  0  0  0  0  0  0  0  0  0
   -9.2566   -8.1992    0.0000 O   0  0  0  0  0  0  0  0  0  0  0  0
  1  2  1  0
  2  3  1  0
  3  4  1  0
  4  5  2  0
  5  6  1  0
  6  7  2  0
  7  8  1  0
  8  9  1  0
  9 10  1  0
  8 11  2  0
  7 12  1  0
 12 13  1  0
  1 14  1  0
 14 15  1  0
 15 16  2  0
 15 17  1  0
 17 18  1  0
 17 19  1  0
 19 20  1  6
 20 21  1  0
 21 22  1  0
 21 23  1  0
 19 24  1  0
 24 25  2  0
 24 26  1  0
 26 27  1  0
 27 28  1  1
 28 29  1  0
 29 30  1  0
 29 31  1  0
 27 32  1  0
 32 33  2  0
 32 34  1  0
 34 35  1  0
 35 36  1  0
 36 37  1  0
 37 38  1  0
 38 39  1  6
 39 40  2  0
 39 41  1  0
 41 42  1  0
 42 43  1  6
 43 44  1  0
 44 45  3  0
 42 46  1  0
 46 47  2  0
 46 48  1  0
 11  4  1  0
 38 34  1  0
M  END
$$$$

     RDKit          2D

 55 56  0  0  0  0  0  0  0  0999 V2000
   -2.4876  -12.5103    0.0000 N   0  0  0  0  0  0  0  0  0  0  0  0
   -1.1173  -13.1204    0.0000 C   0  0  0  0  0  0  0  0  0  0  0  0
   -0.9605  -14.6122    0.0000 C   0  0  0  0  0  0  0  0  0  0  0  0
   -2.1741  -15.4938    0.0000 C   0  0  0  0  0  0  0  0  0  0  0  0
   -2.0173  -16.9856    0.0000 C   0  0  0  0  0  0  0  0  0  0  0  0
   -3.5444  -14.8837    0.0000 C   0  0  0  0  0  0  0  0  0  0  0  0
    0.0962  -12.2387    0.0000 C   0  0  0  0  0  0  0  0  0  0  0  0
    1.4665  -12.8488    0.0000 O   0  0  0  0  0  0  0  0  0  0  0  0
   -0.0606  -10.7469    0.0000 N   0  0  0  0  0  0  0  0  0  0  0  0
    1.1529   -9.8652    0.0000 C   0  0  0  0  0  0  0  0  0  0  0  0
    2.5233  -10.4753    0.0000 C   0  0  0  0  0  0  0  0  0  0  0  0
    3.7368   -9.5937    0.0000 C   0  0  0  0  0  0  0  0  0  0  0  0
    3.5800   -8.1019    0.0000 C   0  0  0  0  0  0  0  0  0  0  0  0
    5.1071  -10.2038    0.0000 C   0  0  0  0  0  0  0  0  0  0  0  0
    0.9961   -8.3735    0.0000 C   0  0  0  0  0  0  0  0  0  0  0  0
    2.2097   -7.4918    0.0000 O   0  0  0  0  0  0  0  0  0  0  0  0
   -0.3742   -7.7634    0.0000 N   0  0  0  0  0  0  0  0  0  0  0  0
   -1.6732   -8.5134    0.0000 C   0  0  0  0  0  0  0  0  0  0  0  0
   -2.7879   -7.5097    0.0000 C   0  0  0  0  0  0  0  0  0  0  0  0
   -2.1778   -6.1393    0.0000 C   0  0  0  0  0  0  0  0  0  0  0  0
   -0.6860   -6.2961    0.0000 C   0  0  0  0  0  0  0  0  0  0  0  0
    0.3177   -5.1814    0.0000 C   0  0  0  0  0  0  0  0  0  0  0  0
    1.7849   -5.4933    0.0000 O   0  0  0  0  0  0  0  0  0  0  0  0
   -0.1459   -3.7548    0.0000 N   0  0  0  0  0  0  0  0  0  0  0  0
    0.8578   -2.6401    0.0000 C   0  0  0  0  0  0  0  0  0  0  0  0
   -1.6131   -3.4430    0.0000 C   0  0  0  0  0  0  0  0  0  0  0  0
   -2.6168   -4.5577    0.0000 C   0  0  0  0  0  0  0  0  0  0  0  0
   -4.0840   -4.2458    0.0000 C   0  0  0  0  0  0  0  0  0  0  0  0
   -5.0877   -5.3605    0.0000 C   0  0  0  0  0  0  0  0  0  0  0  0
   -4.5475   -2.8192    0.0000 C   0  0  0  0  0  0  0  0  0  0  0  0
   -2.0766   -2.0164    0.0000 C   0  0  0  0  0  0  0  0  0  0  0  0
   -3.5438   -1.7045    0.0000 O   0  0  0  0  0  0  0  0  0  0  0  0
   -1.0729   -0.9017    0.0000 N   0  0  0  0  0  0  0  0  0  0  0  0
   -1.5364    0.5249    0.0000 C   0  0  0  0  0  0  0  0  0  0  0  0
   -0.5328    1.6396    0.0000 C   0  0  0  0  0  0  0  0  0  0  0  0
    0.9345    1.3278    0.0000 C   0  0  0  0  0  0  0  0  0  0  0  0
    1.9382    2.4425    0.0000 C   0  0  0  0  0  0  0  0  0  0  0  0
    1.3980   -0.0988    0.0000 C   0  0  0  0  0  0  0  0  0  0  0  0
   -3.0037    0.8368    0.0000 C   0  0  0  0  0  0  0  0  0  0  0  0
   -4.0074   -0.2779    0.0000 O   0  0  0  0  0  0  0  0  0  0  0  0
   -3.4672    2.2634    0.0000 N   0  0  0  0  0  0  0  0  0  0  0  0
   -2.5855    3.4769    0.0000 C   0  0  0  0  0  0  0  0  0  0  0  0
   -3.4672    4.6904    0.0000 C   0  0  0  0  0  0  0  0  0  0  0  0
   -4.8938    4.2269    0.0000 C   0  0  0  0  0  0  0  0  0  0  0  0
   -4.8938    2.7269    0.0000 C   0  0  0  0  0  0  0  0  0  0  0  0
   -6.1073    1.8452    0.0000 C   0  0  0  0  0  0  0  0  0  0  0  0
   -5.9505    0.3534    0.0000 O   0  0  0  0  0  0  0  0  0  0  0  0
   -7.4776    2.4553    0.0000 N   0  0  0  0  0  0  0  0  0  0  0  0
   -8.6911    1.5737    0.0000 C   0  0  0  0  0  0  0  0  0  0  0  0
  -10.0615    2.1838    0.0000 C   0  0  0  0  0  0  0  0  0  0  0  0
  -11.2750    1.3021    0.0000 C   0  0  0  0  0  0  0  0  0  0  0  0
  -12.4885    0.4204    0.0000 C   0  0  0  0  0  0  0  0  0  0  0  0
   -8.5344    0.0819    0.0000 C   0  0  0  0  0  0  0  0  0  0  0  0
   -9.7479   -0.7998    0.0000 O   0  0  0  0  0  0  0  0  0  0  0  0
   -7.1640   -0.5282    0.0000 O   0  0  0  0  0  0  0  0  0  0  0  0
  2  1  1  6
  2  3  1  0
  3  4  1  0
  4  5  1  0
  4  6  1  0
  2  7  1  0
  7  8  2  0
  7  9  1  0
  9 10  1  0
 10 11  1  6
 11 12  1  0
 12 13  1  0
 12 14  1  0
 10 15  1  0
 15 16  2  0
 15 17  1  0
 17 18  1  0
 18 19  1  0
 19 20  1  0
 20 21  1  0
 21 22  1  1
 22 23  2  0
 22 24  1  0
 24 25  1  0
 24 26  1  0
 26 27  1  6
 27 28  1  0
 28 29  1  0
 28 30  1  0
 26 31  1  0
 31 32  2  0
 31 33  1  0
 33 34  1  0
 34 35  1  6
 35 36  1  0
 36 37  1  0
 36 38  1  0
 34 39  1  0
 39 40  2  0
 39 41  1  0
 41 42  1  0
 42 43  1  0
 43 44  1  0
 44 45  1  0
 45 46  1  6
 46 47  2  0
 46 48  1  0
 48 49  1  0
 49 50  1  6
 50 51  1  0
 51 52  3  0
 49 53  1  0
 53 54  2  0
 53 55  1  0
 45 41  1  0
 21 17  1  0
M  END
$$$$

     RDKit          2D

 55 56  0  0  0  0  0  0  0  0999 V2000
   -2.4876  -12.5103    0.0000 N   0  0  0  0  0  0  0  0  0  0  0  0
   -1.1173  -13.1204    0.0000 C   0  0  0  0  0  0  0  0  0  0  0  0
   -0.9605  -14.6122    0.0000 C   0  0  0  0  0  0  0  0  0  0  0  0
   -2.1741  -15.4938    0.0000 C   0  0  0  0  0  0  0  0  0  0  0  0
   -2.0173  -16.9856    0.0000 C   0  0  0  0  0  0  0  0  0  0  0  0
   -3.5444  -14.8837    0.0000 C   0  0  0  0  0  0  0  0  0  0  0  0
    0.0962  -12.2387    0.0000 C   0  0  0  0  0  0  0  0  0  0  0  0
    1.4665  -12.8488    0.0000 O   0  0  0  0  0  0  0  0  0  0  0  0
   -0.0606  -10.7469    0.0000 N   0  0  0  0  0  0  0  0  0  0  0  0
    1.1529   -9.8652    0.0000 C   0  0  0  0  0  0  0  0  0  0  0  0
    2.5233  -10.4753    0.0000 C   0  0  0  0  0  0  0  0  0  0  0  0
    3.7368   -9.5937    0.0000 C   0  0  0  0  0  0  0  0  0  0  0  0
    3.5800   -8.1019    0.0000 C   0  0  0  0  0  0  0  0  0  0  0  0
    5.1071  -10.2038    0.0000 C   0  0  0  0  0  0  0  0  0  0  0  0
    0.9961   -8.3735    0.0000 C   0  0  0  0  0  0  0  0  0  0  0  0
    2.2097   -7.4918    0.0000 O   0  0  0  0  0  0  0  0  0  0  0  0
   -0.3742   -7.7634    0.0000 N   0  0  0  0  0  0  0  0  0  0  0  0
   -1.6732   -8.5134    0.0000 C   0  0  0  0  0  0  0  0  0  0  0  0
   -2.7879   -7.5097    0.0000 C   0  0  0  0  0  0  0  0  0  0  0  0
   -2.1778   -6.1393    0.0000 C   0  0  0  0  0  0  0  0  0  0  0  0
   -0.6860   -6.2961    0.0000 C   0  0  0  0  0  0  0  0  0  0  0  0
    0.3177   -5.1814    0.0000 C   0  0  0  0  0  0  0  0  0  0  0  0
    1.7849   -5.4933    0.0000 O   0  0  0  0  0  0  0  0  0  0  0  0
   -0.1459   -3.7548    0.0000 N   0  0  0  0  0  0  0  0  0  0  0  0
    0.8578   -2.6401    0.0000 C   0  0  0  0  0  0  0  0  0  0  0  0
   -1.6131   -3.4430    0.0000 C   0  0  0  0  0  0  0  0  0  0  0  0
   -2.6168   -4.5577    0.0000 C   0  0  0  0  0  0  0  0  0  0  0  0
   -4.0840   -4.2458    0.0000 C   0  0  0  0  0  0  0  0  0  0  0  0
   -5.0877   -5.3605    0.0000 C   0  0  0  0  0  0  0  0  0  0  0  0
   -4.5475   -2.8192    0.0000 C   0  0  0  0  0  0  0  0  0  0  0  0
   -2.0766   -2.0164    0.0000 C   0  0  0  0  0  0  0  0  0  0  0  0
   -3.5438   -1.7045    0.0000 O   0  0  0  0  0  0  0  0  0  0  0  0
   -1.0729   -0.9017    0.0000 N   0  0  0  0  0  0  0  0  0  0  0  0
   -1.5364    0.5249    0.0000 C   0  0  0  0  0  0  0  0  0  0  0  0
   -0.5328    1.6396    0.0000 C   0  0  0  0  0  0  0  0  0  0  0  0
    0.9345    1.3278    0.0000 C   0  0  0  0  0  0  0  0  0  0  0  0
    1.9382    2.4425    0.0000 C   0  0  0  0  0  0  0  0  0  0  0  0
    1.3980   -0.0988    0.0000 C   0  0  0  0  0  0  0  0  0  0  0  0
   -3.0037    0.8368    0.0000 C   0  0  0  0  0  0  0  0  0  0  0  0
   -4.0074   -0.2779    0.0000 O   0  0  0  0  0  0  0  0  0  0  0  0
   -3.4672    2.2634    0.0000 N   0  0  0  0  0  0  0  0  0  0  0  0
   -2.5855    3.4769    0.0000 C   0  0  0  0  0  0  0  0  0  0  0  0
   -3.4672    4.6904    0.0000 C   0  0  0  0  0  0  0  0  0  0  0  0
   -4.8938    4.2269    0.0000 C   0  0  0  0  0  0  0  0  0  0  0  0
   -4.8938    2.7269    0.0000 C   0  0  0  0  0  0  0  0  0  0  0  0
   -6.1073    1.8452    0.0000 C   0  0  0  0  0  0  0  0  0  0  0  0
   -5.9505    0.3534    0.0000 O   0  0  0  0  0  0  0  0  0  0  0  0
   -7.4776    2.4553    0.0000 N   0  0  0  0  0  0  0  0  0  0  0  0
   -8.6911    1.5737    0.0000 C   0  0  0  0  0  0  0  0  0  0  0  0
  -10.0615    2.1838    0.0000 C   0  0  0  0  0  0  0  0  0  0  0  0
  -11.2750    1.3021    0.0000 C   0  0  0  0  0  0  0  0  0  0  0  0
  -12.4885    0.4204    0.0000 C   0  0  0  0  0  0  0  0  0  0  0  0
   -8.5344    0.0819    0.0000 C   0  0  0  0  0  0  0  0  0  0  0  0
   -9.7479   -0.7998    0.0000 O   0  0  0  0  0  0  0  0  0  0  0  0
   -7.1640   -0.5282    0.0000 O   0  0  0  0  0  0  0  0  0  0  0  0
  2  1  1  1
  2  3  1  0
  3  4  1  0
  4  5  1  0
  4  6  1  0
  2  7  1  0
  7  8  2  0
  7  9  1  0
  9 10  1  0
 10 11  1  6
 11 12  1  0
 12 13  1  0
 12 14  1  0
 10 15  1  0
 15 16  2  0
 15 17  1  0
 17 18  1  0
 18 19  1  0
 19 20  1  0
 20 21  1  0
 21 22  1  1
 22 23  2  0
 22 24  1  0
 24 25  1  0
 24 26  1  0
 26 27  1  6
 27 28  1  0
 28 29  1  0
 28 30  1  0
 26 31  1  0
 31 32  2  0
 31 33  1  0
 33 34  1  0
 34 35  1  6
 35 36  1  0
 36 37  1  0
 36 38  1  0
 34 39  1  0
 39 40  2  0
 39 41  1  0
 41 42  1  0
 42 43  1  0
 43 44  1  0
 44 45  1  0
 45 46  1  6
 46 47  2  0
 46 48  1  0
 48 49  1  0
 49 50  1  6
 50 51  1  0
 51 52  3  0
 49 53  1  0
 53 54  2  0
 53 55  1  0
 45 41  1  0
 21 17  1  0
M  END
$$$$

     RDKit          2D

 56 57  0  0  0  0  0  0  0  0999 V2000
   -2.4876  -12.5103    0.0000 N   0  0  0  0  0  0  0  0  0  0  0  0
   -3.7012  -13.3920    0.0000 C   0  0  0  0  0  0  0  0  0  0  0  0
   -1.1173  -13.1204    0.0000 C   0  0  0  0  0  0  0  0  0  0  0  0
   -0.9605  -14.6122    0.0000 C   0  0  0  0  0  0  0  0  0  0  0  0
   -2.1741  -15.4938    0.0000 C   0  0  0  0  0  0  0  0  0  0  0  0
   -2.0173  -16.9856    0.0000 C   0  0  0  0  0  0  0  0  0  0  0  0
   -3.5444  -14.8837    0.0000 C   0  0  0  0  0  0  0  0  0  0  0  0
    0.0962  -12.2387    0.0000 C   0  0  0  0  0  0  0  0  0  0  0  0
    1.4665  -12.8488    0.0000 O   0  0  0  0  0  0  0  0  0  0  0  0
   -0.0606  -10.7469    0.0000 N   0  0  0  0  0  0  0  0  0  0  0  0
    1.1529   -9.8652    0.0000 C   0  0  0  0  0  0  0  0  0  0  0  0
    2.5233  -10.4753    0.0000 C   0  0  0  0  0  0  0  0  0  0  0  0
    3.7368   -9.5937    0.0000 C   0  0  0  0  0  0  0  0  0  0  0  0
    5.1071  -10.2038    0.0000 C   0  0  0  0  0  0  0  0  0  0  0  0
    3.5800   -8.1019    0.0000 C   0  0  0  0  0  0  0  0  0  0  0  0
    0.9961   -8.3735    0.0000 C   0  0  0  0  0  0  0  0  0  0  0  0
    2.2097   -7.4918    0.0000 O   0  0  0  0  0  0  0  0  0  0  0  0
   -0.3742   -7.7634    0.0000 N   0  0  0  0  0  0  0  0  0  0  0  0
   -1.6732   -8.5134    0.0000 C   0  0  0  0  0  0  0  0  0  0  0  0
   -2.7879   -7.5097    0.0000 C   0  0  0  0  0  0  0  0  0  0  0  0
   -2.1778   -6.1393    0.0000 C   0  0  0  0  0  0  0  0  0  0  0  0
   -0.6860   -6.2961    0.0000 C   0  0  0  0  0  0  0  0  0  0  0  0
    0.3177   -5.1814    0.0000 C   0  0  0  0  0  0  0  0  0  0  0  0
    1.7849   -5.4933    0.0000 O   0  0  0  0  0  0  0  0  0  0  0  0
   -0.1459   -3.7548    0.0000 N   0  0  0  0  0  0  0  0  0  0  0  0
    0.8578   -2.6401    0.0000 C   0  0  0  0  0  0  0  0  0  0  0  0
   -1.6131   -3.4430    0.0000 C   0  0  0  0  0  0  0  0  0  0  0  0
   -2.6168   -4.5577    0.0000 C   0  0  0  0  0  0  0  0  0  0  0  0
   -4.0840   -4.2458    0.0000 C   0  0  0  0  0  0  0  0  0  0  0  0
   -5.0877   -5.3605    0.0000 C   0  0  0  0  0  0  0  0  0  0  0  0
   -4.5475   -2.8192    0.0000 C   0  0  0  0  0  0  0  0  0  0  0  0
   -2.0766   -2.0164    0.0000 C   0  0  0  0  0  0  0  0  0  0  0  0
   -3.5438   -1.7045    0.0000 O   0  0  0  0  0  0  0  0  0  0  0  0
   -1.0729   -0.9017    0.0000 N   0  0  0  0  0  0  0  0  0  0  0  0
   -1.5364    0.5249    0.0000 C   0  0  0  0  0  0  0  0  0  0  0  0
   -0.5328    1.6396    0.0000 C   0  0  0  0  0  0  0  0  0  0  0  0
    0.9345    1.3278    0.0000 C   0  0  0  0  0  0  0  0  0  0  0  0
    1.9382    2.4425    0.0000 C   0  0  0  0  0  0  0  0  0  0  0  0
    1.3980   -0.0988    0.0000 C   0  0  0  0  0  0  0  0  0  0  0  0
   -3.0037    0.8368    0.0000 C   0  0  0  0  0  0  0  0  0  0  0  0
   -4.0074   -0.2779    0.0000 O   0  0  0  0  0  0  0  0  0  0  0  0
   -3.4672    2.2634    0.0000 N   0  0  0  0  0  0  0  0  0  0  0  0
   -2.5855    3.4769    0.0000 C   0  0  0  0  0  0  0  0  0  0  0  0
   -3.4672    4.6904    0.0000 C   0  0  0  0  0  0  0  0  0  0  0  0
   -4.8938    4.2269    0.0000 C   0  0  0  0  0  0  0  0  0  0  0  0
   -4.8938    2.7269    0.0000 C   0  0  0  0  0  0  0  0  0  0  0  0
   -6.1073    1.8452    0.0000 C   0  0  0  0  0  0  0  0  0  0  0  0
   -5.9505    0.3534    0.0000 O   0  0  0  0  0  0  0  0  0  0  0  0
   -7.4776    2.4553    0.0000 N   0  0  0  0  0  0  0  0  0  0  0  0
   -8.6911    1.5737    0.0000 C   0  0  0  0  0  0  0  0  0  0  0  0
  -10.0615    2.1838    0.0000 C   0  0  0  0  0  0  0  0  0  0  0  0
  -11.2750    1.3021    0.0000 C   0  0  0  0  0  0  0  0  0  0  0  0
  -12.4885    0.4204    0.0000 C   0  0  0  0  0  0  0  0  0  0  0  0
   -8.5344    0.0819    0.0000 C   0  0  0  0  0  0  0  0  0  0  0  0
   -9.7479   -0.7998    0.0000 O   0  0  0  0  0  0  0  0  0  0  0  0
   -7.1640   -0.5282    0.0000 O   0  0  0  0  0  0  0  0  0  0  0  0
  1  2  1  0
  1  3  1  0
  3  4  1  6
  4  5  1  0
  5  6  1  0
  5  7  1  0
  3  8  1  0
  8  9  2  0
  8 10  1  0
 10 11  1  0
 11 12  1  6
 12 13  1  0
 13 14  1  0
 13 15  1  0
 11 16  1  0
 16 17  2  0
 16 18  1  0
 18 19  1  0
 19 20  1  0
 20 21  1  0
 21 22  1  0
 22 23  1  1
 23 24  2  0
 23 25  1  0
 25 26  1  0
 25 27  1  0
 27 28  1  6
 28 29  1  0
 29 30  1  0
 29 31  1  0
 27 32  1  0
 32 33  2  0
 32 34  1  0
 34 35  1  0
 35 36  1  6
 36 37  1  0
 37 38  1  0
 37 39  1  0
 35 40  1  0
 40 41  2  0
 40 42  1  0
 42 43  1  0
 43 44  1  0
 44 45  1  0
 45 46  1  0
 46 47  1  6
 47 48  2  0
 47 49  1  0
 49 50  1  0
 50 51  1  6
 51 52  1  0
 52 53  3  0
 50 54  1  0
 54 55  2  0
 54 56  1  0
 46 42  1  0
 22 18  1  0
M  END
$$$$

     RDKit          2D

 56 57  0  0  0  0  0  0  0  0999 V2000
   -2.4876  -12.5103    0.0000 N   0  0  0  0  0  0  0  0  0  0  0  0
   -3.7012  -13.3920    0.0000 C   0  0  0  0  0  0  0  0  0  0  0  0
   -1.1173  -13.1204    0.0000 C   0  0  0  0  0  0  0  0  0  0  0  0
   -0.9605  -14.6122    0.0000 C   0  0  0  0  0  0  0  0  0  0  0  0
   -2.1741  -15.4938    0.0000 C   0  0  0  0  0  0  0  0  0  0  0  0
   -2.0173  -16.9856    0.0000 C   0  0  0  0  0  0  0  0  0  0  0  0
   -3.5444  -14.8837    0.0000 C   0  0  0  0  0  0  0  0  0  0  0  0
    0.0962  -12.2387    0.0000 C   0  0  0  0  0  0  0  0  0  0  0  0
    1.4665  -12.8488    0.0000 O   0  0  0  0  0  0  0  0  0  0  0  0
   -0.0606  -10.7469    0.0000 N   0  0  0  0  0  0  0  0  0  0  0  0
    1.1529   -9.8652    0.0000 C   0  0  0  0  0  0  0  0  0  0  0  0
    2.5233  -10.4753    0.0000 C   0  0  0  0  0  0  0  0  0  0  0  0
    3.7368   -9.5937    0.0000 C   0  0  0  0  0  0  0  0  0  0  0  0
    5.1071  -10.2038    0.0000 C   0  0  0  0  0  0  0  0  0  0  0  0
    3.5800   -8.1019    0.0000 C   0  0  0  0  0  0  0  0  0  0  0  0
    0.9961   -8.3735    0.0000 C   0  0  0  0  0  0  0  0  0  0  0  0
    2.2097   -7.4918    0.0000 O   0  0  0  0  0  0  0  0  0  0  0  0
   -0.3742   -7.7634    0.0000 N   0  0  0  0  0  0  0  0  0  0  0  0
   -1.6732   -8.5134    0.0000 C   0  0  0  0  0  0  0  0  0  0  0  0
   -2.7879   -7.5097    0.0000 C   0  0  0  0  0  0  0  0  0  0  0  0
   -2.1778   -6.1393    0.0000 C   0  0  0  0  0  0  0  0  0  0  0  0
   -0.6860   -6.2961    0.0000 C   0  0  0  0  0  0  0  0  0  0  0  0
    0.3177   -5.1814    0.0000 C   0  0  0  0  0  0  0  0  0  0  0  0
    1.7849   -5.4933    0.0000 O   0  0  0  0  0  0  0  0  0  0  0  0
   -0.1459   -3.7548    0.0000 N   0  0  0  0  0  0  0  0  0  0  0  0
    0.8578   -2.6401    0.0000 C   0  0  0  0  0  0  0  0  0  0  0  0
   -1.6131   -3.4430    0.0000 C   0  0  0  0  0  0  0  0  0  0  0  0
   -2.6168   -4.5577    0.0000 C   0  0  0  0  0  0  0  0  0  0  0  0
   -4.0840   -4.2458    0.0000 C   0  0  0  0  0  0  0  0  0  0  0  0
   -5.0877   -5.3605    0.0000 C   0  0  0  0  0  0  0  0  0  0  0  0
   -4.5475   -2.8192    0.0000 C   0  0  0  0  0  0  0  0  0  0  0  0
   -2.0766   -2.0164    0.0000 C   0  0  0  0  0  0  0  0  0  0  0  0
   -3.5438   -1.7045    0.0000 O   0  0  0  0  0  0  0  0  0  0  0  0
   -1.0729   -0.9017    0.0000 N   0  0  0  0  0  0  0  0  0  0  0  0
   -1.5364    0.5249    0.0000 C   0  0  0  0  0  0  0  0  0  0  0  0
   -0.5328    1.6396    0.0000 C   0  0  0  0  0  0  0  0  0  0  0  0
    0.9345    1.3278    0.0000 C   0  0  0  0  0  0  0  0  0  0  0  0
    1.9382    2.4425    0.0000 C   0  0  0  0  0  0  0  0  0  0  0  0
    1.3980   -0.0988    0.0000 C   0  0  0  0  0  0  0  0  0  0  0  0
   -3.0037    0.8368    0.0000 C   0  0  0  0  0  0  0  0  0  0  0  0
   -4.0074   -0.2779    0.0000 O   0  0  0  0  0  0  0  0  0  0  0  0
   -3.4672    2.2634    0.0000 N   0  0  0  0  0  0  0  0  0  0  0  0
   -2.5855    3.4769    0.0000 C   0  0  0  0  0  0  0  0  0  0  0  0
   -3.4672    4.6904    0.0000 C   0  0  0  0  0  0  0  0  0  0  0  0
   -4.8938    4.2269    0.0000 C   0  0  0  0  0  0  0  0  0  0  0  0
   -4.8938    2.7269    0.0000 C   0  0  0  0  0  0  0  0  0  0  0  0
   -6.1073    1.8452    0.0000 C   0  0  0  0  0  0  0  0  0  0  0  0
   -5.9505    0.3534    0.0000 O   0  0  0  0  0  0  0  0  0  0  0  0
   -7.4776    2.4553    0.0000 N   0  0  0  0  0  0  0  0  0  0  0  0
   -8.6911    1.5737    0.0000 C   0  0  0  0  0  0  0  0  0  0  0  0
  -10.0615    2.1838    0.0000 C   0  0  0  0  0  0  0  0  0  0  0  0
  -11.2750    1.3021    0.0000 C   0  0  0  0  0  0  0  0  0  0  0  0
  -12.4885    0.4204    0.0000 C   0  0  0  0  0  0  0  0  0  0  0  0
   -8.5344    0.0819    0.0000 C   0  0  0  0  0  0  0  0  0  0  0  0
   -9.7479   -0.7998    0.0000 O   0  0  0  0  0  0  0  0  0  0  0  0
   -7.1640   -0.5282    0.0000 O   0  0  0  0  0  0  0  0  0  0  0  0
  1  2  1  0
  1  3  1  0
  3  4  1  1
  4  5  1  0
  5  6  1  0
  5  7  1  0
  3  8  1  0
  8  9  2  0
  8 10  1  0
 10 11  1  0
 11 12  1  6
 12 13  1  0
 13 14  1  0
 13 15  1  0
 11 16  1  0
 16 17  2  0
 16 18  1  0
 18 19  1  0
 19 20  1  0
 20 21  1  0
 21 22  1  0
 22 23  1  1
 23 24  2  0
 23 25  1  0
 25 26  1  0
 25 27  1  0
 27 28  1  6
 28 29  1  0
 29 30  1  0
 29 31  1  0
 27 32  1  0
 32 33  2  0
 32 34  1  0
 34 35  1  0
 35 36  1  6
 36 37  1  0
 37 38  1  0
 37 39  1  0
 35 40  1  0
 40 41  2  0
 40 42  1  0
 42 43  1  0
 43 44  1  0
 44 45  1  0
 45 46  1  0
 46 47  1  6
 47 48  2  0
 47 49  1  0
 49 50  1  0
 50 51  1  6
 51 52  1  0
 52 53  3  0
 50 54  1  0
 54 55  2  0
 54 56  1  0
 22 18  1  0
 46 42  1  0
M  END
$$$$

     RDKit          2D

 55 56  0  0  0  0  0  0  0  0999 V2000
   -2.4876  -12.5103    0.0000 N   0  0  0  0  0  0  0  0  0  0  0  0
   -1.1173  -13.1204    0.0000 C   0  0  0  0  0  0  0  0  0  0  0  0
   -0.9605  -14.6122    0.0000 C   0  0  0  0  0  0  0  0  0  0  0  0
   -2.1741  -15.4938    0.0000 C   0  0  0  0  0  0  0  0  0  0  0  0
   -2.0173  -16.9856    0.0000 C   0  0  0  0  0  0  0  0  0  0  0  0
   -3.5444  -14.8837    0.0000 C   0  0  0  0  0  0  0  0  0  0  0  0
    0.0962  -12.2387    0.0000 C   0  0  0  0  0  0  0  0  0  0  0  0
    1.4665  -12.8488    0.0000 O   0  0  0  0  0  0  0  0  0  0  0  0
   -0.0606  -10.7469    0.0000 N   0  0  0  0  0  0  0  0  0  0  0  0
    1.1529   -9.8652    0.0000 C   0  0  0  0  0  0  0  0  0  0  0  0
    2.5233  -10.4753    0.0000 C   0  0  0  0  0  0  0  0  0  0  0  0
    3.7368   -9.5937    0.0000 C   0  0  0  0  0  0  0  0  0  0  0  0
    3.5800   -8.1019    0.0000 C   0  0  0  0  0  0  0  0  0  0  0  0
    5.1071  -10.2038    0.0000 C   0  0  0  0  0  0  0  0  0  0  0  0
    0.9961   -8.3735    0.0000 C   0  0  0  0  0  0  0  0  0  0  0  0
    2.2097   -7.4918    0.0000 O   0  0  0  0  0  0  0  0  0  0  0  0
   -0.3742   -7.7634    0.0000 N   0  0  0  0  0  0  0  0  0  0  0  0
   -1.6732   -8.5134    0.0000 C   0  0  0  0  0  0  0  0  0  0  0  0
   -2.7879   -7.5097    0.0000 C   0  0  0  0  0  0  0  0  0  0  0  0
   -2.1778   -6.1393    0.0000 C   0  0  0  0  0  0  0  0  0  0  0  0
   -0.6860   -6.2961    0.0000 C   0  0  0  0  0  0  0  0  0  0  0  0
    0.3177   -5.1814    0.0000 C   0  0  0  0  0  0  0  0  0  0  0  0
    1.7849   -5.4933    0.0000 O   0  0  0  0  0  0  0  0  0  0  0  0
   -0.1459   -3.7548    0.0000 N   0  0  0  0  0  0  0  0  0  0  0  0
    0.8578   -2.6401    0.0000 C   0  0  0  0  0  0  0  0  0  0  0  0
   -1.6131   -3.4430    0.0000 C   0  0  0  0  0  0  0  0  0  0  0  0
   -2.6168   -4.5577    0.0000 C   0  0  0  0  0  0  0  0  0  0  0  0
   -4.0840   -4.2458    0.0000 C   0  0  0  0  0  0  0  0  0  0  0  0
   -5.0877   -5.3605    0.0000 C   0  0  0  0  0  0  0  0  0  0  0  0
   -4.5475   -2.8192    0.0000 C   0  0  0  0  0  0  0  0  0  0  0  0
   -2.0766   -2.0164    0.0000 C   0  0  0  0  0  0  0  0  0  0  0  0
   -3.5438   -1.7045    0.0000 O   0  0  0  0  0  0  0  0  0  0  0  0
   -1.0729   -0.9017    0.0000 N   0  0  0  0  0  0  0  0  0  0  0  0
   -1.5364    0.5249    0.0000 C   0  0  0  0  0  0  0  0  0  0  0  0
   -0.5328    1.6396    0.0000 C   0  0  0  0  0  0  0  0  0  0  0  0
    0.9345    1.3278    0.0000 C   0  0  0  0  0  0  0  0  0  0  0  0
    1.9382    2.4425    0.0000 C   0  0  0  0  0  0  0  0  0  0  0  0
    1.3980   -0.0988    0.0000 C   0  0  0  0  0  0  0  0  0  0  0  0
   -3.0037    0.8368    0.0000 C   0  0  0  0  0  0  0  0  0  0  0  0
   -4.0074   -0.2779    0.0000 O   0  0  0  0  0  0  0  0  0  0  0  0
   -3.4672    2.2634    0.0000 N   0  0  0  0  0  0  0  0  0  0  0  0
   -2.5855    3.4769    0.0000 C   0  0  0  0  0  0  0  0  0  0  0  0
   -3.4672    4.6904    0.0000 C   0  0  0  0  0  0  0  0  0  0  0  0
   -4.8938    4.2269    0.0000 C   0  0  0  0  0  0  0  0  0  0  0  0
   -4.8938    2.7269    0.0000 C   0  0  0  0  0  0  0  0  0  0  0  0
   -6.1073    1.8452    0.0000 C   0  0  0  0  0  0  0  0  0  0  0  0
   -5.9505    0.3534    0.0000 O   0  0  0  0  0  0  0  0  0  0  0  0
   -7.4776    2.4553    0.0000 N   0  0  0  0  0  0  0  0  0  0  0  0
   -8.6911    1.5737    0.0000 C   0  0  0  0  0  0  0  0  0  0  0  0
  -10.0615    2.1838    0.0000 C   0  0  0  0  0  0  0  0  0  0  0  0
  -11.2750    1.3021    0.0000 C   0  0  0  0  0  0  0  0  0  0  0  0
  -12.4885    0.4204    0.0000 C   0  0  0  0  0  0  0  0  0  0  0  0
   -8.5344    0.0819    0.0000 C   0  0  0  0  0  0  0  0  0  0  0  0
   -9.7479   -0.7998    0.0000 O   0  0  0  0  0  0  0  0  0  0  0  0
   -7.1640   -0.5282    0.0000 O   0  0  0  0  0  0  0  0  0  0  0  0
  2  1  1  6
  2  3  1  0
  3  4  1  0
  4  5  1  0
  4  6  1  0
  2  7  1  0
  7  8  2  0
  7  9  1  0
  9 10  1  0
 10 11  1  1
 11 12  1  0
 12 13  1  0
 12 14  1  0
 10 15  1  0
 15 16  2  0
 15 17  1  0
 17 18  1  0
 18 19  1  0
 19 20  1  0
 20 21  1  0
 21 22  1  1
 22 23  2  0
 22 24  1  0
 24 25  1  0
 24 26  1  0
 26 27  1  6
 27 28  1  0
 28 29  1  0
 28 30  1  0
 26 31  1  0
 31 32  2  0
 31 33  1  0
 33 34  1  0
 34 35  1  6
 35 36  1  0
 36 37  1  0
 36 38  1  0
 34 39  1  0
 39 40  2  0
 39 41  1  0
 41 42  1  0
 42 43  1  0
 43 44  1  0
 44 45  1  0
 45 46  1  6
 46 47  2  0
 46 48  1  0
 48 49  1  0
 49 50  1  6
 50 51  1  0
 51 52  3  0
 49 53  1  0
 53 54  2  0
 53 55  1  0
 21 17  1  0
 45 41  1  0
M  END
$$$$

     RDKit          2D

 55 56  0  0  0  0  0  0  0  0999 V2000
   -2.4876  -12.5103    0.0000 N   0  0  0  0  0  0  0  0  0  0  0  0
   -1.1173  -13.1204    0.0000 C   0  0  0  0  0  0  0  0  0  0  0  0
   -0.9605  -14.6122    0.0000 C   0  0  0  0  0  0  0  0  0  0  0  0
   -2.1741  -15.4938    0.0000 C   0  0  0  0  0  0  0  0  0  0  0  0
   -2.0173  -16.9856    0.0000 C   0  0  0  0  0  0  0  0  0  0  0  0
   -3.5444  -14.8837    0.0000 C   0  0  0  0  0  0  0  0  0  0  0  0
    0.0962  -12.2387    0.0000 C   0  0  0  0  0  0  0  0  0  0  0  0
    1.4665  -12.8488    0.0000 O   0  0  0  0  0  0  0  0  0  0  0  0
   -0.0606  -10.7469    0.0000 N   0  0  0  0  0  0  0  0  0  0  0  0
    1.1529   -9.8652    0.0000 C   0  0  0  0  0  0  0  0  0  0  0  0
    2.5233  -10.4753    0.0000 C   0  0  0  0  0  0  0  0  0  0  0  0
    3.7368   -9.5937    0.0000 C   0  0  0  0  0  0  0  0  0  0  0  0
    3.5800   -8.1019    0.0000 C   0  0  0  0  0  0  0  0  0  0  0  0
    5.1071  -10.2038    0.0000 C   0  0  0  0  0  0  0  0  0  0  0  0
    0.9961   -8.3735    0.0000 C   0  0  0  0  0  0  0  0  0  0  0  0
    2.2097   -7.4918    0.0000 O   0  0  0  0  0  0  0  0  0  0  0  0
   -0.3742   -7.7634    0.0000 N   0  0  0  0  0  0  0  0  0  0  0  0
   -1.6732   -8.5134    0.0000 C   0  0  0  0  0  0  0  0  0  0  0  0
   -2.7879   -7.5097    0.0000 C   0  0  0  0  0  0  0  0  0  0  0  0
   -2.1778   -6.1393    0.0000 C   0  0  0  0  0  0  0  0  0  0  0  0
   -0.6860   -6.2961    0.0000 C   0  0  0  0  0  0  0  0  0  0  0  0
    0.3177   -5.1814    0.0000 C   0  0  0  0  0  0  0  0  0  0  0  0
    1.7849   -5.4933    0.0000 O   0  0  0  0  0  0  0  0  0  0  0  0
   -0.1459   -3.7548    0.0000 N   0  0  0  0  0  0  0  0  0  0  0  0
    0.8578   -2.6401    0.0000 C   0  0  0  0  0  0  0  0  0  0  0  0
   -1.6131   -3.4430    0.0000 C   0  0  0  0  0  0  0  0  0  0  0  0
   -2.6168   -4.5577    0.0000 C   0  0  0  0  0  0  0  0  0  0  0  0
   -4.0840   -4.2458    0.0000 C   0  0  0  0  0  0  0  0  0  0  0  0
   -5.0877   -5.3605    0.0000 C   0  0  0  0  0  0  0  0  0  0  0  0
   -4.5475   -2.8192    0.0000 C   0  0  0  0  0  0  0  0  0  0  0  0
   -2.0766   -2.0164    0.0000 C   0  0  0  0  0  0  0  0  0  0  0  0
   -3.5438   -1.7045    0.0000 O   0  0  0  0  0  0  0  0  0  0  0  0
   -1.0729   -0.9017    0.0000 N   0  0  0  0  0  0  0  0  0  0  0  0
   -1.5364    0.5249    0.0000 C   0  0  0  0  0  0  0  0  0  0  0  0
   -0.5328    1.6396    0.0000 C   0  0  0  0  0  0  0  0  0  0  0  0
    0.9345    1.3278    0.0000 C   0  0  0  0  0  0  0  0  0  0  0  0
    1.9382    2.4425    0.0000 C   0  0  0  0  0  0  0  0  0  0  0  0
    1.3980   -0.0988    0.0000 C   0  0  0  0  0  0  0  0  0  0  0  0
   -3.0037    0.8368    0.0000 C   0  0  0  0  0  0  0  0  0  0  0  0
   -4.0074   -0.2779    0.0000 O   0  0  0  0  0  0  0  0  0  0  0  0
   -3.4672    2.2634    0.0000 N   0  0  0  0  0  0  0  0  0  0  0  0
   -2.5855    3.4769    0.0000 C   0  0  0  0  0  0  0  0  0  0  0  0
   -3.4672    4.6904    0.0000 C   0  0  0  0  0  0  0  0  0  0  0  0
   -4.8938    4.2269    0.0000 C   0  0  0  0  0  0  0  0  0  0  0  0
   -4.8938    2.7269    0.0000 C   0  0  0  0  0  0  0  0  0  0  0  0
   -6.1073    1.8452    0.0000 C   0  0  0  0  0  0  0  0  0  0  0  0
   -5.9505    0.3534    0.0000 O   0  0  0  0  0  0  0  0  0  0  0  0
   -7.4776    2.4553    0.0000 N   0  0  0  0  0  0  0  0  0  0  0  0
   -8.6911    1.5737    0.0000 C   0  0  0  0  0  0  0  0  0  0  0  0
  -10.0615    2.1838    0.0000 C   0  0  0  0  0  0  0  0  0  0  0  0
  -11.2750    1.3021    0.0000 C   0  0  0  0  0  0  0  0  0  0  0  0
  -12.4885    0.4204    0.0000 C   0  0  0  0  0  0  0  0  0  0  0  0
   -8.5344    0.0819    0.0000 C   0  0  0  0  0  0  0  0  0  0  0  0
   -9.7479   -0.7998    0.0000 O   0  0  0  0  0  0  0  0  0  0  0  0
   -7.1640   -0.5282    0.0000 O   0  0  0  0  0  0  0  0  0  0  0  0
  2  1  1  1
  2  3  1  0
  3  4  1  0
  4  5  1  0
  4  6  1  0
  2  7  1  0
  7  8  2  0
  7  9  1  0
  9 10  1  0
 10 11  1  1
 11 12  1  0
 12 13  1  0
 12 14  1  0
 10 15  1  0
 15 16  2  0
 15 17  1  0
 17 18  1  0
 18 19  1  0
 19 20  1  0
 20 21  1  0
 21 22  1  1
 22 23  2  0
 22 24  1  0
 24 25  1  0
 24 26  1  0
 26 27  1  6
 27 28  1  0
 28 29  1  0
 28 30  1  0
 26 31  1  0
 31 32  2  0
 31 33  1  0
 33 34  1  0
 34 35  1  6
 35 36  1  0
 36 37  1  0
 36 38  1  0
 34 39  1  0
 39 40  2  0
 39 41  1  0
 41 42  1  0
 42 43  1  0
 43 44  1  0
 44 45  1  0
 45 46  1  6
 46 47  2  0
 46 48  1  0
 48 49  1  0
 49 50  1  6
 50 51  1  0
 51 52  3  0
 49 53  1  0
 53 54  2  0
 53 55  1  0
 21 17  1  0
 45 41  1  0
M  END
$$$$

     RDKit          2D

 56 57  0  0  0  0  0  0  0  0999 V2000
   -2.4876  -12.5103    0.0000 N   0  0  0  0  0  0  0  0  0  0  0  0
   -3.7012  -13.3920    0.0000 C   0  0  0  0  0  0  0  0  0  0  0  0
   -1.1173  -13.1204    0.0000 C   0  0  0  0  0  0  0  0  0  0  0  0
   -0.9605  -14.6122    0.0000 C   0  0  0  0  0  0  0  0  0  0  0  0
   -2.1741  -15.4938    0.0000 C   0  0  0  0  0  0  0  0  0  0  0  0
   -2.0173  -16.9856    0.0000 C   0  0  0  0  0  0  0  0  0  0  0  0
   -3.5444  -14.8837    0.0000 C   0  0  0  0  0  0  0  0  0  0  0  0
    0.0962  -12.2387    0.0000 C   0  0  0  0  0  0  0  0  0  0  0  0
    1.4665  -12.8488    0.0000 O   0  0  0  0  0  0  0  0  0  0  0  0
   -0.0606  -10.7469    0.0000 N   0  0  0  0  0  0  0  0  0  0  0  0
    1.1529   -9.8652    0.0000 C   0  0  0  0  0  0  0  0  0  0  0  0
    2.5233  -10.4753    0.0000 C   0  0  0  0  0  0  0  0  0  0  0  0
    3.7368   -9.5937    0.0000 C   0  0  0  0  0  0  0  0  0  0  0  0
    5.1071  -10.2038    0.0000 C   0  0  0  0  0  0  0  0  0  0  0  0
    3.5800   -8.1019    0.0000 C   0  0  0  0  0  0  0  0  0  0  0  0
    0.9961   -8.3735    0.0000 C   0  0  0  0  0  0  0  0  0  0  0  0
    2.2097   -7.4918    0.0000 O   0  0  0  0  0  0  0  0  0  0  0  0
   -0.3742   -7.7634    0.0000 N   0  0  0  0  0  0  0  0  0  0  0  0
   -1.6732   -8.5134    0.0000 C   0  0  0  0  0  0  0  0  0  0  0  0
   -2.7879   -7.5097    0.0000 C   0  0  0  0  0  0  0  0  0  0  0  0
   -2.1778   -6.1393    0.0000 C   0  0  0  0  0  0  0  0  0  0  0  0
   -0.6860   -6.2961    0.0000 C   0  0  0  0  0  0  0  0  0  0  0  0
    0.3177   -5.1814    0.0000 C   0  0  0  0  0  0  0  0  0  0  0  0
    1.7849   -5.4933    0.0000 O   0  0  0  0  0  0  0  0  0  0  0  0
   -0.1459   -3.7548    0.0000 N   0  0  0  0  0  0  0  0  0  0  0  0
    0.8578   -2.6401    0.0000 C   0  0  0  0  0  0  0  0  0  0  0  0
   -1.6131   -3.4430    0.0000 C   0  0  0  0  0  0  0  0  0  0  0  0
   -2.6168   -4.5577    0.0000 C   0  0  0  0  0  0  0  0  0  0  0  0
   -4.0840   -4.2458    0.0000 C   0  0  0  0  0  0  0  0  0  0  0  0
   -5.0877   -5.3605    0.0000 C   0  0  0  0  0  0  0  0  0  0  0  0
   -4.5475   -2.8192    0.0000 C   0  0  0  0  0  0  0  0  0  0  0  0
   -2.0766   -2.0164    0.0000 C   0  0  0  0  0  0  0  0  0  0  0  0
   -3.5438   -1.7045    0.0000 O   0  0  0  0  0  0  0  0  0  0  0  0
   -1.0729   -0.9017    0.0000 N   0  0  0  0  0  0  0  0  0  0  0  0
   -1.5364    0.5249    0.0000 C   0  0  0  0  0  0  0  0  0  0  0  0
   -0.5328    1.6396    0.0000 C   0  0  0  0  0  0  0  0  0  0  0  0
    0.9345    1.3278    0.0000 C   0  0  0  0  0  0  0  0  0  0  0  0
    1.9382    2.4425    0.0000 C   0  0  0  0  0  0  0  0  0  0  0  0
    1.3980   -0.0988    0.0000 C   0  0  0  0  0  0  0  0  0  0  0  0
   -3.0037    0.8368    0.0000 C   0  0  0  0  0  0  0  0  0  0  0  0
   -4.0074   -0.2779    0.0000 O   0  0  0  0  0  0  0  0  0  0  0  0
   -3.4672    2.2634    0.0000 N   0  0  0  0  0  0  0  0  0  0  0  0
   -2.5855    3.4769    0.0000 C   0  0  0  0  0  0  0  0  0  0  0  0
   -3.4672    4.6904    0.0000 C   0  0  0  0  0  0  0  0  0  0  0  0
   -4.8938    4.2269    0.0000 C   0  0  0  0  0  0  0  0  0  0  0  0
   -4.8938    2.7269    0.0000 C   0  0  0  0  0  0  0  0  0  0  0  0
   -6.1073    1.8452    0.0000 C   0  0  0  0  0  0  0  0  0  0  0  0
   -5.9505    0.3534    0.0000 O   0  0  0  0  0  0  0  0  0  0  0  0
   -7.4776    2.4553    0.0000 N   0  0  0  0  0  0  0  0  0  0  0  0
   -8.6911    1.5737    0.0000 C   0  0  0  0  0  0  0  0  0  0  0  0
  -10.0615    2.1838    0.0000 C   0  0  0  0  0  0  0  0  0  0  0  0
  -11.2750    1.3021    0.0000 C   0  0  0  0  0  0  0  0  0  0  0  0
  -12.4885    0.4204    0.0000 C   0  0  0  0  0  0  0  0  0  0  0  0
   -8.5344    0.0819    0.0000 C   0  0  0  0  0  0  0  0  0  0  0  0
   -9.7479   -0.7998    0.0000 O   0  0  0  0  0  0  0  0  0  0  0  0
   -7.1640   -0.5282    0.0000 O   0  0  0  0  0  0  0  0  0  0  0  0
  1  2  1  0
  1  3  1  0
  3  4  1  6
  4  5  1  0
  5  6  1  0
  5  7  1  0
  3  8  1  0
  8  9  2  0
  8 10  1  0
 10 11  1  0
 11 12  1  1
 12 13  1  0
 13 14  1  0
 13 15  1  0
 11 16  1  0
 16 17  2  0
 16 18  1  0
 18 19  1  0
 19 20  1  0
 20 21  1  0
 21 22  1  0
 22 23  1  1
 23 24  2  0
 23 25  1  0
 25 26  1  0
 25 27  1  0
 27 28  1  6
 28 29  1  0
 29 30  1  0
 29 31  1  0
 27 32  1  0
 32 33  2  0
 32 34  1  0
 34 35  1  0
 35 36  1  6
 36 37  1  0
 37 38  1  0
 37 39  1  0
 35 40  1  0
 40 41  2  0
 40 42  1  0
 42 43  1  0
 43 44  1  0
 44 45  1  0
 45 46  1  0
 46 47  1  6
 47 48  2  0
 47 49  1  0
 49 50  1  0
 50 51  1  6
 51 52  1  0
 52 53  3  0
 50 54  1  0
 54 55  2  0
 54 56  1  0
 22 18  1  0
 46 42  1  0
M  END
$$$$

     RDKit          2D

 56 57  0  0  0  0  0  0  0  0999 V2000
   -2.4876  -12.5103    0.0000 N   0  0  0  0  0  0  0  0  0  0  0  0
   -3.7012  -13.3920    0.0000 C   0  0  0  0  0  0  0  0  0  0  0  0
   -1.1173  -13.1204    0.0000 C   0  0  0  0  0  0  0  0  0  0  0  0
   -0.9605  -14.6122    0.0000 C   0  0  0  0  0  0  0  0  0  0  0  0
   -2.1741  -15.4938    0.0000 C   0  0  0  0  0  0  0  0  0  0  0  0
   -2.0173  -16.9856    0.0000 C   0  0  0  0  0  0  0  0  0  0  0  0
   -3.5444  -14.8837    0.0000 C   0  0  0  0  0  0  0  0  0  0  0  0
    0.0962  -12.2387    0.0000 C   0  0  0  0  0  0  0  0  0  0  0  0
    1.4665  -12.8488    0.0000 O   0  0  0  0  0  0  0  0  0  0  0  0
   -0.0606  -10.7469    0.0000 N   0  0  0  0  0  0  0  0  0  0  0  0
    1.1529   -9.8652    0.0000 C   0  0  0  0  0  0  0  0  0  0  0  0
    2.5233  -10.4753    0.0000 C   0  0  0  0  0  0  0  0  0  0  0  0
    3.7368   -9.5937    0.0000 C   0  0  0  0  0  0  0  0  0  0  0  0
    5.1071  -10.2038    0.0000 C   0  0  0  0  0  0  0  0  0  0  0  0
    3.5800   -8.1019    0.0000 C   0  0  0  0  0  0  0  0  0  0  0  0
    0.9961   -8.3735    0.0000 C   0  0  0  0  0  0  0  0  0  0  0  0
    2.2097   -7.4918    0.0000 O   0  0  0  0  0  0  0  0  0  0  0  0
   -0.3742   -7.7634    0.0000 N   0  0  0  0  0  0  0  0  0  0  0  0
   -1.6732   -8.5134    0.0000 C   0  0  0  0  0  0  0  0  0  0  0  0
   -2.7879   -7.5097    0.0000 C   0  0  0  0  0  0  0  0  0  0  0  0
   -2.1778   -6.1393    0.0000 C   0  0  0  0  0  0  0  0  0  0  0  0
   -0.6860   -6.2961    0.0000 C   0  0  0  0  0  0  0  0  0  0  0  0
    0.3177   -5.1814    0.0000 C   0  0  0  0  0  0  0  0  0  0  0  0
    1.7849   -5.4933    0.0000 O   0  0  0  0  0  0  0  0  0  0  0  0
   -0.1459   -3.7548    0.0000 N   0  0  0  0  0  0  0  0  0  0  0  0
    0.8578   -2.6401    0.0000 C   0  0  0  0  0  0  0  0  0  0  0  0
   -1.6131   -3.4430    0.0000 C   0  0  0  0  0  0  0  0  0  0  0  0
   -2.6168   -4.5577    0.0000 C   0  0  0  0  0  0  0  0  0  0  0  0
   -4.0840   -4.2458    0.0000 C   0  0  0  0  0  0  0  0  0  0  0  0
   -5.0877   -5.3605    0.0000 C   0  0  0  0  0  0  0  0  0  0  0  0
   -4.5475   -2.8192    0.0000 C   0  0  0  0  0  0  0  0  0  0  0  0
   -2.0766   -2.0164    0.0000 C   0  0  0  0  0  0  0  0  0  0  0  0
   -3.5438   -1.7045    0.0000 O   0  0  0  0  0  0  0  0  0  0  0  0
   -1.0729   -0.9017    0.0000 N   0  0  0  0  0  0  0  0  0  0  0  0
   -1.5364    0.5249    0.0000 C   0  0  0  0  0  0  0  0  0  0  0  0
   -0.5328    1.6396    0.0000 C   0  0  0  0  0  0  0  0  0  0  0  0
    0.9345    1.3278    0.0000 C   0  0  0  0  0  0  0  0  0  0  0  0
    1.9382    2.4425    0.0000 C   0  0  0  0  0  0  0  0  0  0  0  0
    1.3980   -0.0988    0.0000 C   0  0  0  0  0  0  0  0  0  0  0  0
   -3.0037    0.8368    0.0000 C   0  0  0  0  0  0  0  0  0  0  0  0
   -4.0074   -0.2779    0.0000 O   0  0  0  0  0  0  0  0  0  0  0  0
   -3.4672    2.2634    0.0000 N   0  0  0  0  0  0  0  0  0  0  0  0
   -2.5855    3.4769    0.0000 C   0  0  0  0  0  0  0  0  0  0  0  0
   -3.4672    4.6904    0.0000 C   0  0  0  0  0  0  0  0  0  0  0  0
   -4.8938    4.2269    0.0000 C   0  0  0  0  0  0  0  0  0  0  0  0
   -4.8938    2.7269    0.0000 C   0  0  0  0  0  0  0  0  0  0  0  0
   -6.1073    1.8452    0.0000 C   0  0  0  0  0  0  0  0  0  0  0  0
   -5.9505    0.3534    0.0000 O   0  0  0  0  0  0  0  0  0  0  0  0
   -7.4776    2.4553    0.0000 N   0  0  0  0  0  0  0  0  0  0  0  0
   -8.6911    1.5737    0.0000 C   0  0  0  0  0  0  0  0  0  0  0  0
  -10.0615    2.1838    0.0000 C   0  0  0  0  0  0  0  0  0  0  0  0
  -11.2750    1.3021    0.0000 C   0  0  0  0  0  0  0  0  0  0  0  0
  -12.4885    0.4204    0.0000 C   0  0  0  0  0  0  0  0  0  0  0  0
   -8.5344    0.0819    0.0000 C   0  0  0  0  0  0  0  0  0  0  0  0
   -9.7479   -0.7998    0.0000 O   0  0  0  0  0  0  0  0  0  0  0  0
   -7.1640   -0.5282    0.0000 O   0  0  0  0  0  0  0  0  0  0  0  0
  1  2  1  0
  1  3  1  0
  3  4  1  1
  4  5  1  0
  5  6  1  0
  5  7  1  0
  3  8  1  0
  8  9  2  0
  8 10  1  0
 10 11  1  0
 11 12  1  1
 12 13  1  0
 13 14  1  0
 13 15  1  0
 11 16  1  0
 16 17  2  0
 16 18  1  0
 18 19  1  0
 19 20  1  0
 20 21  1  0
 21 22  1  0
 22 23  1  1
 23 24  2  0
 23 25  1  0
 25 26  1  0
 25 27  1  0
 27 28  1  6
 28 29  1  0
 29 30  1  0
 29 31  1  0
 27 32  1  0
 32 33  2  0
 32 34  1  0
 34 35  1  0
 35 36  1  6
 36 37  1  0
 37 38  1  0
 37 39  1  0
 35 40  1  0
 40 41  2  0
 40 42  1  0
 42 43  1  0
 43 44  1  0
 44 45  1  0
 45 46  1  0
 46 47  1  6
 47 48  2  0
 47 49  1  0
 49 50  1  0
 50 51  1  6
 51 52  1  0
 52 53  3  0
 50 54  1  0
 54 55  2  0
 54 56  1  0
 22 18  1  0
 46 42  1  0
M  END
$$$$

     RDKit          2D

 56 57  0  0  0  0  0  0  0  0999 V2000
    8.0260   -1.2990    0.0000 N   0  0  0  0  0  0  0  0  0  0  0  0
    7.2760   -0.0000    0.0000 C   0  0  0  0  0  0  0  0  0  0  0  0
    8.0260    1.2990    0.0000 C   0  0  0  0  0  0  0  0  0  0  0  0
    9.5260    1.2990    0.0000 C   0  0  0  0  0  0  0  0  0  0  0  0
   10.2760    2.5981    0.0000 C   0  0  0  0  0  0  0  0  0  0  0  0
   10.2760    0.0000    0.0000 C   0  0  0  0  0  0  0  0  0  0  0  0
    5.7760   -0.0000    0.0000 C   0  0  0  0  0  0  0  0  0  0  0  0
    5.0260    1.2990    0.0000 O   0  0  0  0  0  0  0  0  0  0  0  0
    5.0260   -1.2990    0.0000 N   0  0  0  0  0  0  0  0  0  0  0  0
    5.7760   -2.5981    0.0000 C   0  0  0  0  0  0  0  0  0  0  0  0
    3.5260   -1.2990    0.0000 C   0  0  0  0  0  0  0  0  0  0  0  0
    2.7760   -2.5981    0.0000 C   0  0  0  0  0  0  0  0  0  0  0  0
    3.5260   -3.8971    0.0000 C   0  0  0  0  0  0  0  0  0  0  0  0
    2.7760   -5.1962    0.0000 C   0  0  0  0  0  0  0  0  0  0  0  0
    5.0260   -3.8971    0.0000 C   0  0  0  0  0  0  0  0  0  0  0  0
    2.7760   -0.0000    0.0000 C   0  0  0  0  0  0  0  0  0  0  0  0
    3.5260    1.2990    0.0000 O   0  0  0  0  0  0  0  0  0  0  0  0
    1.2760    0.0000    0.0000 N   0  0  0  0  0  0  0  0  0  0  0  0
    0.3943    1.2135    0.0000 C   0  0  0  0  0  0  0  0  0  0  0  0
   -1.0323    0.7500    0.0000 C   0  0  0  0  0  0  0  0  0  0  0  0
   -1.0323   -0.7500    0.0000 C   0  0  0  0  0  0  0  0  0  0  0  0
    0.3943   -1.2135    0.0000 C   0  0  0  0  0  0  0  0  0  0  0  0
    0.8578   -2.6401    0.0000 C   0  0  0  0  0  0  0  0  0  0  0  0
    2.2060   -3.2977    0.0000 O   0  0  0  0  0  0  0  0  0  0  0  0
   -0.1459   -3.7548    0.0000 N   0  0  0  0  0  0  0  0  0  0  0  0
    0.3177   -5.1814    0.0000 C   0  0  0  0  0  0  0  0  0  0  0  0
   -1.6131   -3.4430    0.0000 C   0  0  0  0  0  0  0  0  0  0  0  0
   -2.6168   -4.5577    0.0000 C   0  0  0  0  0  0  0  0  0  0  0  0
   -4.0840   -4.2458    0.0000 C   0  0  0  0  0  0  0  0  0  0  0  0
   -5.0877   -5.3605    0.0000 C   0  0  0  0  0  0  0  0  0  0  0  0
   -4.5475   -2.8192    0.0000 C   0  0  0  0  0  0  0  0  0  0  0  0
   -2.0766   -2.0164    0.0000 C   0  0  0  0  0  0  0  0  0  0  0  0
   -1.7024   -1.3125    0.0000 O   0  0  0  0  0  0  0  0  0  0  0  0
   -3.5438   -1.7045    0.0000 N   0  0  0  0  0  0  0  0  0  0  0  0
   -4.0074   -0.2779    0.0000 C   0  0  0  0  0  0  0  0  0  0  0  0
   -5.4746    0.0339    0.0000 C   0  0  0  0  0  0  0  0  0  0  0  0
   -5.9381    1.4605    0.0000 C   0  0  0  0  0  0  0  0  0  0  0  0
   -7.4053    1.7724    0.0000 C   0  0  0  0  0  0  0  0  0  0  0  0
   -5.2340    2.7850    0.0000 C   0  0  0  0  0  0  0  0  0  0  0  0
   -3.0037    0.8368    0.0000 C   0  0  0  0  0  0  0  0  0  0  0  0
   -1.5046    0.8892    0.0000 O   0  0  0  0  0  0  0  0  0  0  0  0
   -3.4672    2.2634    0.0000 N   0  0  0  0  0  0  0  0  0  0  0  0
   -4.8938    2.7269    0.0000 C   0  0  0  0  0  0  0  0  0  0  0  0
   -4.8938    4.2269    0.0000 C   0  0  0  0  0  0  0  0  0  0  0  0
   -3.4672    4.6904    0.0000 C   0  0  0  0  0  0  0  0  0  0  0  0
   -2.5855    3.4769    0.0000 C   0  0  0  0  0  0  0  0  0  0  0  0
   -1.0855    3.4769    0.0000 C   0  0  0  0  0  0  0  0  0  0  0  0
   -0.3355    2.1779    0.0000 O   0  0  0  0  0  0  0  0  0  0  0  0
   -0.3355    4.7759    0.0000 N   0  0  0  0  0  0  0  0  0  0  0  0
    1.1645    4.7759    0.0000 C   0  0  0  0  0  0  0  0  0  0  0  0
    1.9145    6.0750    0.0000 C   0  0  0  0  0  0  0  0  0  0  0  0
    3.4145    6.0750    0.0000 C   0  0  0  0  0  0  0  0  0  0  0  0
    4.9145    6.0750    0.0000 C   0  0  0  0  0  0  0  0  0  0  0  0
    1.9145    3.4769    0.0000 C   0  0  0  0  0  0  0  0  0  0  0  0
    1.1645    2.1779    0.0000 O   0  0  0  0  0  0  0  0  0  0  0  0
    3.4145    3.4769    0.0000 O   0  0  0  0  0  0  0  0  0  0  0  0
  2  1  1  6
  2  3  1  0
  3  4  1  0
  4  5  1  0
  4  6  1  0
  2  7  1  0
  7  8  2  0
  7  9  1  0
  9 10  1  0
  9 11  1  0
 11 12  1  1
 12 13  1  0
 13 14  1  0
 13 15  1  0
 11 16  1  0
 16 17  2  0
 16 18  1  0
 18 19  1  0
 19 20  1  0
 20 21  1  0
 21 22  1  0
 22 23  1  6
 23 24  2  0
 23 25  1  0
 25 26  1  0
 25 27  1  0
 27 28  1  6
 28 29  1  0
 29 30  1  0
 29 31  1  0
 27 32  1  0
 32 33  2  0
 32 34  1  0
 34 35  1  0
 35 36  1  1
 36 37  1  0
 37 38  1  0
 37 39  1  0
 35 40  1  0
 40 41  2  0
 40 42  1  0
 42 43  1  0
 43 44  1  0
 44 45  1  0
 45 46  1  0
 46 47  1  1
 47 48  2  0
 47 49  1  0
 49 50  1  0
 50 51  1  1
 51 52  1  0
 52 53  3  0
 50 54  1  0
 54 55  2  0
 54 56  1  0
 22 18  1  0
 46 42  1  0
M  END
$$$$

     RDKit          2D

 56 57  0  0  0  0  0  0  0  0999 V2000
    8.0260   -1.2990    0.0000 N   0  0  0  0  0  0  0  0  0  0  0  0
    7.2760   -0.0000    0.0000 C   0  0  0  0  0  0  0  0  0  0  0  0
    8.0260    1.2990    0.0000 C   0  0  0  0  0  0  0  0  0  0  0  0
    9.5260    1.2990    0.0000 C   0  0  0  0  0  0  0  0  0  0  0  0
   10.2760    2.5981    0.0000 C   0  0  0  0  0  0  0  0  0  0  0  0
   10.2760    0.0000    0.0000 C   0  0  0  0  0  0  0  0  0  0  0  0
    5.7760   -0.0000    0.0000 C   0  0  0  0  0  0  0  0  0  0  0  0
    5.0260    1.2990    0.0000 O   0  0  0  0  0  0  0  0  0  0  0  0
    5.0260   -1.2990    0.0000 N   0  0  0  0  0  0  0  0  0  0  0  0
    5.7760   -2.5981    0.0000 C   0  0  0  0  0  0  0  0  0  0  0  0
    3.5260   -1.2990    0.0000 C   0  0  0  0  0  0  0  0  0  0  0  0
    2.7760   -2.5981    0.0000 C   0  0  0  0  0  0  0  0  0  0  0  0
    3.5260   -3.8971    0.0000 C   0  0  0  0  0  0  0  0  0  0  0  0
    2.7760   -5.1962    0.0000 C   0  0  0  0  0  0  0  0  0  0  0  0
    5.0260   -3.8971    0.0000 C   0  0  0  0  0  0  0  0  0  0  0  0
    2.7760   -0.0000    0.0000 C   0  0  0  0  0  0  0  0  0  0  0  0
    3.5260    1.2990    0.0000 O   0  0  0  0  0  0  0  0  0  0  0  0
    1.2760    0.0000    0.0000 N   0  0  0  0  0  0  0  0  0  0  0  0
    0.3943    1.2135    0.0000 C   0  0  0  0  0  0  0  0  0  0  0  0
   -1.0323    0.7500    0.0000 C   0  0  0  0  0  0  0  0  0  0  0  0
   -1.0323   -0.7500    0.0000 C   0  0  0  0  0  0  0  0  0  0  0  0
    0.3943   -1.2135    0.0000 C   0  0  0  0  0  0  0  0  0  0  0  0
    0.8578   -2.6401    0.0000 C   0  0  0  0  0  0  0  0  0  0  0  0
    2.2060   -3.2977    0.0000 O   0  0  0  0  0  0  0  0  0  0  0  0
   -0.1459   -3.7548    0.0000 N   0  0  0  0  0  0  0  0  0  0  0  0
    0.3177   -5.1814    0.0000 C   0  0  0  0  0  0  0  0  0  0  0  0
   -1.6131   -3.4430    0.0000 C   0  0  0  0  0  0  0  0  0  0  0  0
   -2.6168   -4.5577    0.0000 C   0  0  0  0  0  0  0  0  0  0  0  0
   -4.0840   -4.2458    0.0000 C   0  0  0  0  0  0  0  0  0  0  0  0
   -5.0877   -5.3605    0.0000 C   0  0  0  0  0  0  0  0  0  0  0  0
   -4.5475   -2.8192    0.0000 C   0  0  0  0  0  0  0  0  0  0  0  0
   -2.0766   -2.0164    0.0000 C   0  0  0  0  0  0  0  0  0  0  0  0
   -1.7024   -1.3125    0.0000 O   0  0  0  0  0  0  0  0  0  0  0  0
   -3.5438   -1.7045    0.0000 N   0  0  0  0  0  0  0  0  0  0  0  0
   -4.0074   -0.2779    0.0000 C   0  0  0  0  0  0  0  0  0  0  0  0
   -5.4746    0.0339    0.0000 C   0  0  0  0  0  0  0  0  0  0  0  0
   -5.9381    1.4605    0.0000 C   0  0  0  0  0  0  0  0  0  0  0  0
   -7.4053    1.7724    0.0000 C   0  0  0  0  0  0  0  0  0  0  0  0
   -5.2340    2.7850    0.0000 C   0  0  0  0  0  0  0  0  0  0  0  0
   -3.0037    0.8368    0.0000 C   0  0  0  0  0  0  0  0  0  0  0  0
   -1.5046    0.8892    0.0000 O   0  0  0  0  0  0  0  0  0  0  0  0
   -3.4672    2.2634    0.0000 N   0  0  0  0  0  0  0  0  0  0  0  0
   -4.8938    2.7269    0.0000 C   0  0  0  0  0  0  0  0  0  0  0  0
   -4.8938    4.2269    0.0000 C   0  0  0  0  0  0  0  0  0  0  0  0
   -3.4672    4.6904    0.0000 C   0  0  0  0  0  0  0  0  0  0  0  0
   -2.5855    3.4769    0.0000 C   0  0  0  0  0  0  0  0  0  0  0  0
   -1.0855    3.4769    0.0000 C   0  0  0  0  0  0  0  0  0  0  0  0
   -0.3355    2.1779    0.0000 O   0  0  0  0  0  0  0  0  0  0  0  0
   -0.3355    4.7759    0.0000 N   0  0  0  0  0  0  0  0  0  0  0  0
    1.1645    4.7759    0.0000 C   0  0  0  0  0  0  0  0  0  0  0  0
    1.9145    6.0750    0.0000 C   0  0  0  0  0  0  0  0  0  0  0  0
    3.4145    6.0750    0.0000 C   0  0  0  0  0  0  0  0  0  0  0  0
    4.9145    6.0750    0.0000 C   0  0  0  0  0  0  0  0  0  0  0  0
    1.9145    3.4769    0.0000 C   0  0  0  0  0  0  0  0  0  0  0  0
    1.1645    2.1779    0.0000 O   0  0  0  0  0  0  0  0  0  0  0  0
    3.4145    3.4769    0.0000 O   0  0  0  0  0  0  0  0  0  0  0  0
  2  1  1  1
  2  3  1  0
  3  4  1  0
  4  5  1  0
  4  6  1  0
  2  7  1  0
  7  8  2  0
  7  9  1  0
  9 10  1  0
  9 11  1  0
 11 12  1  1
 12 13  1  0
 13 14  1  0
 13 15  1  0
 11 16  1  0
 16 17  2  0
 16 18  1  0
 18 19  1  0
 19 20  1  0
 20 21  1  0
 21 22  1  0
 22 23  1  6
 23 24  2  0
 23 25  1  0
 25 26  1  0
 25 27  1  0
 27 28  1  6
 28 29  1  0
 29 30  1  0
 29 31  1  0
 27 32  1  0
 32 33  2  0
 32 34  1  0
 34 35  1  0
 35 36  1  1
 36 37  1  0
 37 38  1  0
 37 39  1  0
 35 40  1  0
 40 41  2  0
 40 42  1  0
 42 43  1  0
 43 44  1  0
 44 45  1  0
 45 46  1  0
 46 47  1  1
 47 48  2  0
 47 49  1  0
 49 50  1  0
 50 51  1  1
 51 52  1  0
 52 53  3  0
 50 54  1  0
 54 55  2  0
 54 56  1  0
 22 18  1  0
 46 42  1  0
M  END
$$$$

     RDKit          2D

 39 39  0  0  0  0  0  0  0  0999 V2000
   -1.7240    5.1962    0.0000 N   0  0  0  0  0  0  0  0  0  0  0  0
   -0.9740    6.4952    0.0000 C   0  0  0  0  0  0  0  0  0  0  0  0
   -1.7240    7.7942    0.0000 C   0  0  0  0  0  0  0  0  0  0  0  0
   -3.2240    7.7942    0.0000 C   0  0  0  0  0  0  0  0  0  0  0  0
   -3.9740    9.0933    0.0000 C   0  0  0  0  0  0  0  0  0  0  0  0
   -3.9740    6.4952    0.0000 C   0  0  0  0  0  0  0  0  0  0  0  0
    0.5260    6.4952    0.0000 C   0  0  0  0  0  0  0  0  0  0  0  0
    1.2760    7.7942    0.0000 O   0  0  0  0  0  0  0  0  0  0  0  0
    1.2760    5.1962    0.0000 N   0  0  0  0  0  0  0  0  0  0  0  0
    2.7760    5.1962    0.0000 C   0  0  0  0  0  0  0  0  0  0  0  0
    3.5260    6.4952    0.0000 C   0  0  0  0  0  0  0  0  0  0  0  0
    5.0260    6.4952    0.0000 C   0  0  0  0  0  0  0  0  0  0  0  0
    5.7760    5.1962    0.0000 C   0  0  0  0  0  0  0  0  0  0  0  0
    5.7760    7.7942    0.0000 C   0  0  0  0  0  0  0  0  0  0  0  0
    3.5260    3.8971    0.0000 C   0  0  0  0  0  0  0  0  0  0  0  0
    5.0260    3.8971    0.0000 O   0  0  0  0  0  0  0  0  0  0  0  0
    2.7760    2.5981    0.0000 N   0  0  0  0  0  0  0  0  0  0  0  0
    3.5260    1.2990    0.0000 C   0  0  0  0  0  0  0  0  0  0  0  0
    5.0260    1.2990    0.0000 C   0  0  0  0  0  0  0  0  0  0  0  0
    5.7760    0.0000    0.0000 C   0  0  0  0  0  0  0  0  0  0  0  0
    5.0260   -1.2990    0.0000 C   0  0  0  0  0  0  0  0  0  0  0  0
    7.2760    0.0000    0.0000 C   0  0  0  0  0  0  0  0  0  0  0  0
    2.7760    0.0000    0.0000 C   0  0  0  0  0  0  0  0  0  0  0  0
    3.5260   -1.2990    0.0000 O   0  0  0  0  0  0  0  0  0  0  0  0
    1.2760    0.0000    0.0000 N   0  0  0  0  0  0  0  0  0  0  0  0
    0.3943    1.2135    0.0000 C   0  0  0  0  0  0  0  0  0  0  0  0
   -1.0323    0.7500    0.0000 C   0  0  0  0  0  0  0  0  0  0  0  0
   -1.0323   -0.7500    0.0000 C   0  0  0  0  0  0  0  0  0  0  0  0
    0.3943   -1.2135    0.0000 C   0  0  0  0  0  0  0  0  0  0  0  0
    0.8578   -2.6401    0.0000 C   0  0  0  0  0  0  0  0  0  0  0  0
    2.3250   -2.9520    0.0000 O   0  0  0  0  0  0  0  0  0  0  0  0
   -0.1459   -3.7548    0.0000 N   0  0  0  0  0  0  0  0  0  0  0  0
    0.3177   -5.1814    0.0000 C   0  0  0  0  0  0  0  0  0  0  0  0
   -0.6860   -6.2961    0.0000 C   0  0  0  0  0  0  0  0  0  0  0  0
   -0.2225   -7.7227    0.0000 C   0  0  0  0  0  0  0  0  0  0  0  0
    0.2410   -9.1493    0.0000 C   0  0  0  0  0  0  0  0  0  0  0  0
    1.7849   -5.4933    0.0000 C   0  0  0  0  0  0  0  0  0  0  0  0
    2.7886   -4.3786    0.0000 O   0  0  0  0  0  0  0  0  0  0  0  0
    2.2484   -6.9199    0.0000 O   0  0  0  0  0  0  0  0  0  0  0  0
  2  1  1  1
  2  3  1  0
  3  4  1  0
  4  5  1  0
  4  6  1  0
  2  7  1  0
  7  8  2  0
  7  9  1  0
  9 10  1  0
 10 11  1  1
 11 12  1  0
 12 13  1  0
 12 14  1  0
 10 15  1  0
 15 16  2  0
 15 17  1  0
 17 18  1  0
 18 19  1  6
 19 20  1  0
 20 21  1  0
 20 22  1  0
 18 23  1  0
 23 24  2  0
 23 25  1  0
 25 26  1  0
 26 27  1  0
 27 28  1  0
 28 29  1  0
 29 30  1  6
 30 31  2  0
 30 32  1  0
 32 33  1  0
 33 34  1  6
 34 35  1  0
 35 36  3  0
 33 37  1  0
 37 38  2  0
 37 39  1  0
 29 25  1  0
M  END
$$$$

     RDKit          2D

 39 39  0  0  0  0  0  0  0  0999 V2000
   -1.7240    5.1962    0.0000 N   0  0  0  0  0  0  0  0  0  0  0  0
   -0.9740    6.4952    0.0000 C   0  0  0  0  0  0  0  0  0  0  0  0
   -1.7240    7.7942    0.0000 C   0  0  0  0  0  0  0  0  0  0  0  0
   -3.2240    7.7942    0.0000 C   0  0  0  0  0  0  0  0  0  0  0  0
   -3.9740    9.0933    0.0000 C   0  0  0  0  0  0  0  0  0  0  0  0
   -3.9740    6.4952    0.0000 C   0  0  0  0  0  0  0  0  0  0  0  0
    0.5260    6.4952    0.0000 C   0  0  0  0  0  0  0  0  0  0  0  0
    1.2760    7.7942    0.0000 O   0  0  0  0  0  0  0  0  0  0  0  0
    1.2760    5.1962    0.0000 N   0  0  0  0  0  0  0  0  0  0  0  0
    2.7760    5.1962    0.0000 C   0  0  0  0  0  0  0  0  0  0  0  0
    3.5260    6.4952    0.0000 C   0  0  0  0  0  0  0  0  0  0  0  0
    5.0260    6.4952    0.0000 C   0  0  0  0  0  0  0  0  0  0  0  0
    5.7760    5.1962    0.0000 C   0  0  0  0  0  0  0  0  0  0  0  0
    5.7760    7.7942    0.0000 C   0  0  0  0  0  0  0  0  0  0  0  0
    3.5260    3.8971    0.0000 C   0  0  0  0  0  0  0  0  0  0  0  0
    5.0260    3.8971    0.0000 O   0  0  0  0  0  0  0  0  0  0  0  0
    2.7760    2.5981    0.0000 N   0  0  0  0  0  0  0  0  0  0  0  0
    3.5260    1.2990    0.0000 C   0  0  0  0  0  0  0  0  0  0  0  0
    5.0260    1.2990    0.0000 C   0  0  0  0  0  0  0  0  0  0  0  0
    5.7760    0.0000    0.0000 C   0  0  0  0  0  0  0  0  0  0  0  0
    5.0260   -1.2990    0.0000 C   0  0  0  0  0  0  0  0  0  0  0  0
    7.2760    0.0000    0.0000 C   0  0  0  0  0  0  0  0  0  0  0  0
    2.7760    0.0000    0.0000 C   0  0  0  0  0  0  0  0  0  0  0  0
    3.5260   -1.2990    0.0000 O   0  0  0  0  0  0  0  0  0  0  0  0
    1.2760    0.0000    0.0000 N   0  0  0  0  0  0  0  0  0  0  0  0
    0.3943    1.2135    0.0000 C   0  0  0  0  0  0  0  0  0  0  0  0
   -1.0323    0.7500    0.0000 C   0  0  0  0  0  0  0  0  0  0  0  0
   -1.0323   -0.7500    0.0000 C   0  0  0  0  0  0  0  0  0  0  0  0
    0.3943   -1.2135    0.0000 C   0  0  0  0  0  0  0  0  0  0  0  0
    0.8578   -2.6401    0.0000 C   0  0  0  0  0  0  0  0  0  0  0  0
    2.3250   -2.9520    0.0000 O   0  0  0  0  0  0  0  0  0  0  0  0
   -0.1459   -3.7548    0.0000 N   0  0  0  0  0  0  0  0  0  0  0  0
    0.3177   -5.1814    0.0000 C   0  0  0  0  0  0  0  0  0  0  0  0
   -0.6860   -6.2961    0.0000 C   0  0  0  0  0  0  0  0  0  0  0  0
   -0.2225   -7.7227    0.0000 C   0  0  0  0  0  0  0  0  0  0  0  0
    0.2410   -9.1493    0.0000 C   0  0  0  0  0  0  0  0  0  0  0  0
    1.7849   -5.4933    0.0000 C   0  0  0  0  0  0  0  0  0  0  0  0
    2.7886   -4.3786    0.0000 O   0  0  0  0  0  0  0  0  0  0  0  0
    2.2484   -6.9199    0.0000 O   0  0  0  0  0  0  0  0  0  0  0  0
  2  1  1  6
  2  3  1  0
  3  4  1  0
  4  5  1  0
  4  6  1  0
  2  7  1  0
  7  8  2  0
  7  9  1  0
  9 10  1  0
 10 11  1  1
 11 12  1  0
 12 13  1  0
 12 14  1  0
 10 15  1  0
 15 16  2  0
 15 17  1  0
 17 18  1  0
 18 19  1  6
 19 20  1  0
 20 21  1  0
 20 22  1  0
 18 23  1  0
 23 24  2  0
 23 25  1  0
 25 26  1  0
 26 27  1  0
 27 28  1  0
 28 29  1  0
 29 30  1  6
 30 31  2  0
 30 32  1  0
 32 33  1  0
 33 34  1  6
 34 35  1  0
 35 36  3  0
 33 37  1  0
 37 38  2  0
 37 39  1  0
 29 25  1  0
M  END
$$$$

     RDKit          2D

 38 38  0  0  0  0  0  0  0  0999 V2000
   -1.7240    5.1962    0.0000 N   0  0  0  0  0  0  0  0  0  0  0  0
   -0.9740    6.4952    0.0000 C   0  0  0  0  0  0  0  0  0  0  0  0
   -1.7240    7.7942    0.0000 C   0  0  0  0  0  0  0  0  0  0  0  0
   -3.2240    7.7942    0.0000 C   0  0  0  0  0  0  0  0  0  0  0  0
   -0.9740    9.0933    0.0000 C   0  0  0  0  0  0  0  0  0  0  0  0
    0.5260    6.4952    0.0000 C   0  0  0  0  0  0  0  0  0  0  0  0
    1.2760    7.7942    0.0000 O   0  0  0  0  0  0  0  0  0  0  0  0
    1.2760    5.1962    0.0000 N   0  0  0  0  0  0  0  0  0  0  0  0
    2.7760    5.1962    0.0000 C   0  0  0  0  0  0  0  0  0  0  0  0
    3.5260    6.4952    0.0000 C   0  0  0  0  0  0  0  0  0  0  0  0
    5.0260    6.4952    0.0000 C   0  0  0  0  0  0  0  0  0  0  0  0
    5.7760    7.7942    0.0000 C   0  0  0  0  0  0  0  0  0  0  0  0
    5.7760    5.1962    0.0000 C   0  0  0  0  0  0  0  0  0  0  0  0
    3.5260    3.8971    0.0000 C   0  0  0  0  0  0  0  0  0  0  0  0
    5.0260    3.8971    0.0000 O   0  0  0  0  0  0  0  0  0  0  0  0
    2.7760    2.5981    0.0000 N   0  0  0  0  0  0  0  0  0  0  0  0
    3.5260    1.2990    0.0000 C   0  0  0  0  0  0  0  0  0  0  0  0
    5.0260    1.2990    0.0000 C   0  0  0  0  0  0  0  0  0  0  0  0
    5.7760    0.0000    0.0000 C   0  0  0  0  0  0  0  0  0  0  0  0
    7.2760    0.0000    0.0000 C   0  0  0  0  0  0  0  0  0  0  0  0
    5.0260   -1.2990    0.0000 C   0  0  0  0  0  0  0  0  0  0  0  0
    2.7760    0.0000    0.0000 C   0  0  0  0  0  0  0  0  0  0  0  0
    3.5260   -1.2990    0.0000 O   0  0  0  0  0  0  0  0  0  0  0  0
    1.2760    0.0000    0.0000 N   0  0  0  0  0  0  0  0  0  0  0  0
    0.3943    1.2135    0.0000 C   0  0  0  0  0  0  0  0  0  0  0  0
   -1.0323    0.7500    0.0000 C   0  0  0  0  0  0  0  0  0  0  0  0
   -1.0323   -0.7500    0.0000 C   0  0  0  0  0  0  0  0  0  0  0  0
    0.3943   -1.2135    0.0000 C   0  0  0  0  0  0  0  0  0  0  0  0
    0.8578   -2.6401    0.0000 C   0  0  0  0  0  0  0  0  0  0  0  0
    2.3250   -2.9520    0.0000 O   0  0  0  0  0  0  0  0  0  0  0  0
   -0.1459   -3.7548    0.0000 N   0  0  0  0  0  0  0  0  0  0  0  0
    0.3177   -5.1814    0.0000 C   0  0  0  0  0  0  0  0  0  0  0  0
   -0.6860   -6.2961    0.0000 C   0  0  0  0  0  0  0  0  0  0  0  0
   -0.2225   -7.7227    0.0000 C   0  0  0  0  0  0  0  0  0  0  0  0
    0.2410   -9.1493    0.0000 C   0  0  0  0  0  0  0  0  0  0  0  0
    1.7849   -5.4933    0.0000 C   0  0  0  0  0  0  0  0  0  0  0  0
    2.7886   -4.3786    0.0000 O   0  0  0  0  0  0  0  0  0  0  0  0
    2.2484   -6.9199    0.0000 O   0  0  0  0  0  0  0  0  0  0  0  0
  2  1  1  1
  2  3  1  0
  3  4  1  0
  3  5  1  0
  2  6  1  0
  6  7  2  0
  6  8  1  0
  8  9  1  0
  9 10  1  1
 10 11  1  0
 11 12  1  0
 11 13  1  0
  9 14  1  0
 14 15  2  0
 14 16  1  0
 16 17  1  0
 17 18  1  6
 18 19  1  0
 19 20  1  0
 19 21  1  0
 17 22  1  0
 22 23  2  0
 22 24  1  0
 24 25  1  0
 25 26  1  0
 26 27  1  0
 27 28  1  0
 28 29  1  6
 29 30  2  0
 29 31  1  0
 31 32  1  0
 32 33  1  6
 33 34  1  0
 34 35  3  0
 32 36  1  0
 36 37  2  0
 36 38  1  0
 28 24  1  0
M  END
$$$$

     RDKit          2D

 38 38  0  0  0  0  0  0  0  0999 V2000
   -1.7240    5.1962    0.0000 N   0  0  0  0  0  0  0  0  0  0  0  0
   -0.9740    6.4952    0.0000 C   0  0  0  0  0  0  0  0  0  0  0  0
   -1.7240    7.7942    0.0000 C   0  0  0  0  0  0  0  0  0  0  0  0
   -3.2240    7.7942    0.0000 C   0  0  0  0  0  0  0  0  0  0  0  0
   -0.9740    9.0933    0.0000 C   0  0  0  0  0  0  0  0  0  0  0  0
    0.5260    6.4952    0.0000 C   0  0  0  0  0  0  0  0  0  0  0  0
    1.2760    7.7942    0.0000 O   0  0  0  0  0  0  0  0  0  0  0  0
    1.2760    5.1962    0.0000 N   0  0  0  0  0  0  0  0  0  0  0  0
    2.7760    5.1962    0.0000 C   0  0  0  0  0  0  0  0  0  0  0  0
    3.5260    6.4952    0.0000 C   0  0  0  0  0  0  0  0  0  0  0  0
    5.0260    6.4952    0.0000 C   0  0  0  0  0  0  0  0  0  0  0  0
    5.7760    7.7942    0.0000 C   0  0  0  0  0  0  0  0  0  0  0  0
    5.7760    5.1962    0.0000 C   0  0  0  0  0  0  0  0  0  0  0  0
    3.5260    3.8971    0.0000 C   0  0  0  0  0  0  0  0  0  0  0  0
    5.0260    3.8971    0.0000 O   0  0  0  0  0  0  0  0  0  0  0  0
    2.7760    2.5981    0.0000 N   0  0  0  0  0  0  0  0  0  0  0  0
    3.5260    1.2990    0.0000 C   0  0  0  0  0  0  0  0  0  0  0  0
    5.0260    1.2990    0.0000 C   0  0  0  0  0  0  0  0  0  0  0  0
    5.7760    0.0000    0.0000 C   0  0  0  0  0  0  0  0  0  0  0  0
    7.2760    0.0000    0.0000 C   0  0  0  0  0  0  0  0  0  0  0  0
    5.0260   -1.2990    0.0000 C   0  0  0  0  0  0  0  0  0  0  0  0
    2.7760    0.0000    0.0000 C   0  0  0  0  0  0  0  0  0  0  0  0
    3.5260   -1.2990    0.0000 O   0  0  0  0  0  0  0  0  0  0  0  0
    1.2760    0.0000    0.0000 N   0  0  0  0  0  0  0  0  0  0  0  0
    0.3943    1.2135    0.0000 C   0  0  0  0  0  0  0  0  0  0  0  0
   -1.0323    0.7500    0.0000 C   0  0  0  0  0  0  0  0  0  0  0  0
   -1.0323   -0.7500    0.0000 C   0  0  0  0  0  0  0  0  0  0  0  0
    0.3943   -1.2135    0.0000 C   0  0  0  0  0  0  0  0  0  0  0  0
    0.8578   -2.6401    0.0000 C   0  0  0  0  0  0  0  0  0  0  0  0
    2.3250   -2.9520    0.0000 O   0  0  0  0  0  0  0  0  0  0  0  0
   -0.1459   -3.7548    0.0000 N   0  0  0  0  0  0  0  0  0  0  0  0
    0.3177   -5.1814    0.0000 C   0  0  0  0  0  0  0  0  0  0  0  0
   -0.6860   -6.2961    0.0000 C   0  0  0  0  0  0  0  0  0  0  0  0
   -0.2225   -7.7227    0.0000 C   0  0  0  0  0  0  0  0  0  0  0  0
    0.2410   -9.1493    0.0000 C   0  0  0  0  0  0  0  0  0  0  0  0
    1.7849   -5.4933    0.0000 C   0  0  0  0  0  0  0  0  0  0  0  0
    2.7886   -4.3786    0.0000 O   0  0  0  0  0  0  0  0  0  0  0  0
    2.2484   -6.9199    0.0000 O   0  0  0  0  0  0  0  0  0  0  0  0
  2  1  1  6
  2  3  1  0
  3  4  1  0
  3  5  1  0
  2  6  1  0
  6  7  2  0
  6  8  1  0
  8  9  1  0
  9 10  1  1
 10 11  1  0
 11 12  1  0
 11 13  1  0
  9 14  1  0
 14 15  2  0
 14 16  1  0
 16 17  1  0
 17 18  1  6
 18 19  1  0
 19 20  1  0
 19 21  1  0
 17 22  1  0
 22 23  2  0
 22 24  1  0
 24 25  1  0
 25 26  1  0
 26 27  1  0
 27 28  1  0
 28 29  1  6
 29 30  2  0
 29 31  1  0
 31 32  1  0
 32 33  1  6
 33 34  1  0
 34 35  3  0
 32 36  1  0
 36 37  2  0
 36 38  1  0
 28 24  1  0
M  END
$$$$

     RDKit          2D

 40 40  0  0  0  0  0  0  0  0999 V2000
   -1.7240    5.1962    0.0000 N   0  0  0  0  0  0  0  0  0  0  0  0
   -3.2240    5.1962    0.0000 C   0  0  0  0  0  0  0  0  0  0  0  0
   -0.9740    6.4952    0.0000 C   0  0  0  0  0  0  0  0  0  0  0  0
   -1.7240    7.7942    0.0000 C   0  0  0  0  0  0  0  0  0  0  0  0
   -3.2240    7.7942    0.0000 C   0  0  0  0  0  0  0  0  0  0  0  0
   -3.9740    9.0933    0.0000 C   0  0  0  0  0  0  0  0  0  0  0  0
   -3.9740    6.4952    0.0000 C   0  0  0  0  0  0  0  0  0  0  0  0
    0.5260    6.4952    0.0000 C   0  0  0  0  0  0  0  0  0  0  0  0
    1.2760    7.7942    0.0000 O   0  0  0  0  0  0  0  0  0  0  0  0
    1.2760    5.1962    0.0000 N   0  0  0  0  0  0  0  0  0  0  0  0
    2.7760    5.1962    0.0000 C   0  0  0  0  0  0  0  0  0  0  0  0
    3.5260    6.4952    0.0000 C   0  0  0  0  0  0  0  0  0  0  0  0
    5.0260    6.4952    0.0000 C   0  0  0  0  0  0  0  0  0  0  0  0
    5.7760    5.1962    0.0000 C   0  0  0  0  0  0  0  0  0  0  0  0
    5.7760    7.7942    0.0000 C   0  0  0  0  0  0  0  0  0  0  0  0
    3.5260    3.8971    0.0000 C   0  0  0  0  0  0  0  0  0  0  0  0
    5.0260    3.8971    0.0000 O   0  0  0  0  0  0  0  0  0  0  0  0
    2.7760    2.5981    0.0000 N   0  0  0  0  0  0  0  0  0  0  0  0
    3.5260    1.2990    0.0000 C   0  0  0  0  0  0  0  0  0  0  0  0
    5.0260    1.2990    0.0000 C   0  0  0  0  0  0  0  0  0  0  0  0
    5.7760    0.0000    0.0000 C   0  0  0  0  0  0  0  0  0  0  0  0
    7.2760    0.0000    0.0000 C   0  0  0  0  0  0  0  0  0  0  0  0
    5.0260   -1.2990    0.0000 C   0  0  0  0  0  0  0  0  0  0  0  0
    2.7760    0.0000    0.0000 C   0  0  0  0  0  0  0  0  0  0  0  0
    3.5260   -1.2990    0.0000 O   0  0  0  0  0  0  0  0  0  0  0  0
    1.2760    0.0000    0.0000 N   0  0  0  0  0  0  0  0  0  0  0  0
    0.3943    1.2135    0.0000 C   0  0  0  0  0  0  0  0  0  0  0  0
   -1.0323    0.7500    0.0000 C   0  0  0  0  0  0  0  0  0  0  0  0
   -1.0323   -0.7500    0.0000 C   0  0  0  0  0  0  0  0  0  0  0  0
    0.3943   -1.2135    0.0000 C   0  0  0  0  0  0  0  0  0  0  0  0
    0.8578   -2.6401    0.0000 C   0  0  0  0  0  0  0  0  0  0  0  0
    2.3250   -2.9520    0.0000 O   0  0  0  0  0  0  0  0  0  0  0  0
   -0.1459   -3.7548    0.0000 N   0  0  0  0  0  0  0  0  0  0  0  0
    0.3177   -5.1814    0.0000 C   0  0  0  0  0  0  0  0  0  0  0  0
   -0.6860   -6.2961    0.0000 C   0  0  0  0  0  0  0  0  0  0  0  0
   -0.2225   -7.7227    0.0000 C   0  0  0  0  0  0  0  0  0  0  0  0
    0.2410   -9.1493    0.0000 C   0  0  0  0  0  0  0  0  0  0  0  0
    1.7849   -5.4933    0.0000 C   0  0  0  0  0  0  0  0  0  0  0  0
    2.7886   -4.3786    0.0000 O   0  0  0  0  0  0  0  0  0  0  0  0
    2.2484   -6.9199    0.0000 O   0  0  0  0  0  0  0  0  0  0  0  0
  1  2  1  0
  1  3  1  0
  3  4  1  1
  4  5  1  0
  5  6  1  0
  5  7  1  0
  3  8  1  0
  8  9  2  0
  8 10  1  0
 10 11  1  0
 11 12  1  1
 12 13  1  0
 13 14  1  0
 13 15  1  0
 11 16  1  0
 16 17  2  0
 16 18  1  0
 18 19  1  0
 19 20  1  6
 20 21  1  0
 21 22  1  0
 21 23  1  0
 19 24  1  0
 24 25  2  0
 24 26  1  0
 26 27  1  0
 27 28  1  0
 28 29  1  0
 29 30  1  0
 30 31  1  6
 31 32  2  0
 31 33  1  0
 33 34  1  0
 34 35  1  6
 35 36  1  0
 36 37  3  0
 34 38  1  0
 38 39  2  0
 38 40  1  0
 30 26  1  0
M  END
$$$$

     RDKit          2D

 40 40  0  0  0  0  0  0  0  0999 V2000
   -1.7240    5.1962    0.0000 N   0  0  0  0  0  0  0  0  0  0  0  0
   -3.2240    5.1962    0.0000 C   0  0  0  0  0  0  0  0  0  0  0  0
   -0.9740    6.4952    0.0000 C   0  0  0  0  0  0  0  0  0  0  0  0
   -1.7240    7.7942    0.0000 C   0  0  0  0  0  0  0  0  0  0  0  0
   -3.2240    7.7942    0.0000 C   0  0  0  0  0  0  0  0  0  0  0  0
   -3.9740    9.0933    0.0000 C   0  0  0  0  0  0  0  0  0  0  0  0
   -3.9740    6.4952    0.0000 C   0  0  0  0  0  0  0  0  0  0  0  0
    0.5260    6.4952    0.0000 C   0  0  0  0  0  0  0  0  0  0  0  0
    1.2760    7.7942    0.0000 O   0  0  0  0  0  0  0  0  0  0  0  0
    1.2760    5.1962    0.0000 N   0  0  0  0  0  0  0  0  0  0  0  0
    2.7760    5.1962    0.0000 C   0  0  0  0  0  0  0  0  0  0  0  0
    3.5260    6.4952    0.0000 C   0  0  0  0  0  0  0  0  0  0  0  0
    5.0260    6.4952    0.0000 C   0  0  0  0  0  0  0  0  0  0  0  0
    5.7760    5.1962    0.0000 C   0  0  0  0  0  0  0  0  0  0  0  0
    5.7760    7.7942    0.0000 C   0  0  0  0  0  0  0  0  0  0  0  0
    3.5260    3.8971    0.0000 C   0  0  0  0  0  0  0  0  0  0  0  0
    5.0260    3.8971    0.0000 O   0  0  0  0  0  0  0  0  0  0  0  0
    2.7760    2.5981    0.0000 N   0  0  0  0  0  0  0  0  0  0  0  0
    3.5260    1.2990    0.0000 C   0  0  0  0  0  0  0  0  0  0  0  0
    5.0260    1.2990    0.0000 C   0  0  0  0  0  0  0  0  0  0  0  0
    5.7760    0.0000    0.0000 C   0  0  0  0  0  0  0  0  0  0  0  0
    7.2760    0.0000    0.0000 C   0  0  0  0  0  0  0  0  0  0  0  0
    5.0260   -1.2990    0.0000 C   0  0  0  0  0  0  0  0  0  0  0  0
    2.7760    0.0000    0.0000 C   0  0  0  0  0  0  0  0  0  0  0  0
    3.5260   -1.2990    0.0000 O   0  0  0  0  0  0  0  0  0  0  0  0
    1.2760    0.0000    0.0000 N   0  0  0  0  0  0  0  0  0  0  0  0
    0.3943    1.2135    0.0000 C   0  0  0  0  0  0  0  0  0  0  0  0
   -1.0323    0.7500    0.0000 C   0  0  0  0  0  0  0  0  0  0  0  0
   -1.0323   -0.7500    0.0000 C   0  0  0  0  0  0  0  0  0  0  0  0
    0.3943   -1.2135    0.0000 C   0  0  0  0  0  0  0  0  0  0  0  0
    0.8578   -2.6401    0.0000 C   0  0  0  0  0  0  0  0  0  0  0  0
    2.3250   -2.9520    0.0000 O   0  0  0  0  0  0  0  0  0  0  0  0
   -0.1459   -3.7548    0.0000 N   0  0  0  0  0  0  0  0  0  0  0  0
    0.3177   -5.1814    0.0000 C   0  0  0  0  0  0  0  0  0  0  0  0
   -0.6860   -6.2961    0.0000 C   0  0  0  0  0  0  0  0  0  0  0  0
   -0.2225   -7.7227    0.0000 C   0  0  0  0  0  0  0  0  0  0  0  0
    0.2410   -9.1493    0.0000 C   0  0  0  0  0  0  0  0  0  0  0  0
    1.7849   -5.4933    0.0000 C   0  0  0  0  0  0  0  0  0  0  0  0
    2.7886   -4.3786    0.0000 O   0  0  0  0  0  0  0  0  0  0  0  0
    2.2484   -6.9199    0.0000 O   0  0  0  0  0  0  0  0  0  0  0  0
  1  2  1  0
  1  3  1  0
  3  4  1  6
  4  5  1  0
  5  6  1  0
  5  7  1  0
  3  8  1  0
  8  9  2  0
  8 10  1  0
 10 11  1  0
 11 12  1  1
 12 13  1  0
 13 14  1  0
 13 15  1  0
 11 16  1  0
 16 17  2  0
 16 18  1  0
 18 19  1  0
 19 20  1  6
 20 21  1  0
 21 22  1  0
 21 23  1  0
 19 24  1  0
 24 25  2  0
 24 26  1  0
 26 27  1  0
 27 28  1  0
 28 29  1  0
 29 30  1  0
 30 31  1  6
 31 32  2  0
 31 33  1  0
 33 34  1  0
 34 35  1  6
 35 36  1  0
 36 37  3  0
 34 38  1  0
 38 39  2  0
 38 40  1  0
 30 26  1  0
M  END
$$$$

     RDKit          2D

 42 43  0  0  0  0  0  0  0  0999 V2000
   -0.7500   -3.8971    0.0000 N   0  0  0  0  0  0  0  0  0  0  0  0
    0.7500   -3.8971    0.0000 C   0  0  0  0  0  0  0  0  0  0  0  0
    1.5000   -2.5981    0.0000 C   0  0  0  0  0  0  0  0  0  0  0  0
    0.7500   -1.2990    0.0000 C   0  0  0  0  0  0  0  0  0  0  0  0
    1.5000    0.0000    0.0000 C   0  0  0  0  0  0  0  0  0  0  0  0
    0.7500    1.2990    0.0000 C   0  0  0  0  0  0  0  0  0  0  0  0
   -0.7500    1.2990    0.0000 C   0  0  0  0  0  0  0  0  0  0  0  0
   -1.5000    0.0000    0.0000 C   0  0  0  0  0  0  0  0  0  0  0  0
   -0.7500   -1.2990    0.0000 C   0  0  0  0  0  0  0  0  0  0  0  0
    1.5000   -5.1962    0.0000 C   0  0  0  0  0  0  0  0  0  0  0  0
    3.0000   -5.1962    0.0000 O   0  0  0  0  0  0  0  0  0  0  0  0
    0.7500   -6.4952    0.0000 N   0  0  0  0  0  0  0  0  0  0  0  0
    1.5000   -7.7942    0.0000 C   0  0  0  0  0  0  0  0  0  0  0  0
    0.7500   -9.0933    0.0000 C   0  0  0  0  0  0  0  0  0  0  0  0
    1.5000  -10.3923    0.0000 C   0  0  0  0  0  0  0  0  0  0  0  0
    0.7500  -11.6913    0.0000 C   0  0  0  0  0  0  0  0  0  0  0  0
    3.0000  -10.3923    0.0000 C   0  0  0  0  0  0  0  0  0  0  0  0
    3.0000   -7.7942    0.0000 C   0  0  0  0  0  0  0  0  0  0  0  0
    3.7500   -6.4952    0.0000 O   0  0  0  0  0  0  0  0  0  0  0  0
    3.7500   -9.0933    0.0000 N   0  0  0  0  0  0  0  0  0  0  0  0
    5.2500   -9.0933    0.0000 C   0  0  0  0  0  0  0  0  0  0  0  0
    6.0000  -10.3923    0.0000 C   0  0  0  0  0  0  0  0  0  0  0  0
    5.2500  -11.6913    0.0000 C   0  0  0  0  0  0  0  0  0  0  0  0
    6.0000  -12.9904    0.0000 C   0  0  0  0  0  0  0  0  0  0  0  0
    3.7500  -11.6913    0.0000 C   0  0  0  0  0  0  0  0  0  0  0  0
    6.0000   -7.7942    0.0000 C   0  0  0  0  0  0  0  0  0  0  0  0
    5.2500   -6.4952    0.0000 O   0  0  0  0  0  0  0  0  0  0  0  0
    7.5000   -7.7942    0.0000 N   0  0  0  0  0  0  0  0  0  0  0  0
    8.3817   -9.0078    0.0000 C   0  0  0  0  0  0  0  0  0  0  0  0
    9.8083   -8.5442    0.0000 C   0  0  0  0  0  0  0  0  0  0  0  0
    9.8083   -7.0442    0.0000 C   0  0  0  0  0  0  0  0  0  0  0  0
    8.3817   -6.5807    0.0000 C   0  0  0  0  0  0  0  0  0  0  0  0
    7.9182   -5.1541    0.0000 C   0  0  0  0  0  0  0  0  0  0  0  0
    6.4509   -4.8423    0.0000 O   0  0  0  0  0  0  0  0  0  0  0  0
    8.9218   -4.0394    0.0000 N   0  0  0  0  0  0  0  0  0  0  0  0
    8.4583   -2.6128    0.0000 C   0  0  0  0  0  0  0  0  0  0  0  0
    9.4620   -1.4981    0.0000 C   0  0  0  0  0  0  0  0  0  0  0  0
    8.9985   -0.0715    0.0000 C   0  0  0  0  0  0  0  0  0  0  0  0
    8.5350    1.3551    0.0000 C   0  0  0  0  0  0  0  0  0  0  0  0
    6.9911   -2.3009    0.0000 C   0  0  0  0  0  0  0  0  0  0  0  0
    5.9874   -3.4157    0.0000 O   0  0  0  0  0  0  0  0  0  0  0  0
    6.5276   -0.8744    0.0000 O   0  0  0  0  0  0  0  0  0  0  0  0
  2  1  1  1
  2  3  1  0
  3  4  1  0
  4  5  2  0
  5  6  1  0
  6  7  2  0
  7  8  1  0
  8  9  2  0
  2 10  1  0
 10 11  2  0
 10 12  1  0
 12 13  1  0
 13 14  1  6
 14 15  1  0
 15 16  1  0
 15 17  1  0
 13 18  1  0
 18 19  2  0
 18 20  1  0
 20 21  1  0
 21 22  1  1
 22 23  1  0
 23 24  1  0
 23 25  1  0
 21 26  1  0
 26 27  2  0
 26 28  1  0
 28 29  1  0
 29 30  1  0
 30 31  1  0
 31 32  1  0
 32 33  1  6
 33 34  2  0
 33 35  1  0
 35 36  1  0
 36 37  1  6
 37 38  1  0
 38 39  3  0
 36 40  1  0
 40 41  2  0
 40 42  1  0
  9  4  1  0
 32 28  1  0
M  END
$$$$

     RDKit          2D

 42 43  0  0  0  0  0  0  0  0999 V2000
   -0.7500   -3.8971    0.0000 N   0  0  0  0  0  0  0  0  0  0  0  0
    0.7500   -3.8971    0.0000 C   0  0  0  0  0  0  0  0  0  0  0  0
    1.5000   -2.5981    0.0000 C   0  0  0  0  0  0  0  0  0  0  0  0
    0.7500   -1.2990    0.0000 C   0  0  0  0  0  0  0  0  0  0  0  0
    1.5000    0.0000    0.0000 C   0  0  0  0  0  0  0  0  0  0  0  0
    0.7500    1.2990    0.0000 C   0  0  0  0  0  0  0  0  0  0  0  0
   -0.7500    1.2990    0.0000 C   0  0  0  0  0  0  0  0  0  0  0  0
   -1.5000    0.0000    0.0000 C   0  0  0  0  0  0  0  0  0  0  0  0
   -0.7500   -1.2990    0.0000 C   0  0  0  0  0  0  0  0  0  0  0  0
    1.5000   -5.1962    0.0000 C   0  0  0  0  0  0  0  0  0  0  0  0
    3.0000   -5.1962    0.0000 O   0  0  0  0  0  0  0  0  0  0  0  0
    0.7500   -6.4952    0.0000 N   0  0  0  0  0  0  0  0  0  0  0  0
    1.5000   -7.7942    0.0000 C   0  0  0  0  0  0  0  0  0  0  0  0
    0.7500   -9.0933    0.0000 C   0  0  0  0  0  0  0  0  0  0  0  0
    1.5000  -10.3923    0.0000 C   0  0  0  0  0  0  0  0  0  0  0  0
    0.7500  -11.6913    0.0000 C   0  0  0  0  0  0  0  0  0  0  0  0
    3.0000  -10.3923    0.0000 C   0  0  0  0  0  0  0  0  0  0  0  0
    3.0000   -7.7942    0.0000 C   0  0  0  0  0  0  0  0  0  0  0  0
    3.7500   -6.4952    0.0000 O   0  0  0  0  0  0  0  0  0  0  0  0
    3.7500   -9.0933    0.0000 N   0  0  0  0  0  0  0  0  0  0  0  0
    5.2500   -9.0933    0.0000 C   0  0  0  0  0  0  0  0  0  0  0  0
    6.0000  -10.3923    0.0000 C   0  0  0  0  0  0  0  0  0  0  0  0
    5.2500  -11.6913    0.0000 C   0  0  0  0  0  0  0  0  0  0  0  0
    6.0000  -12.9904    0.0000 C   0  0  0  0  0  0  0  0  0  0  0  0
    3.7500  -11.6913    0.0000 C   0  0  0  0  0  0  0  0  0  0  0  0
    6.0000   -7.7942    0.0000 C   0  0  0  0  0  0  0  0  0  0  0  0
    5.2500   -6.4952    0.0000 O   0  0  0  0  0  0  0  0  0  0  0  0
    7.5000   -7.7942    0.0000 N   0  0  0  0  0  0  0  0  0  0  0  0
    8.3817   -9.0078    0.0000 C   0  0  0  0  0  0  0  0  0  0  0  0
    9.8083   -8.5442    0.0000 C   0  0  0  0  0  0  0  0  0  0  0  0
    9.8083   -7.0442    0.0000 C   0  0  0  0  0  0  0  0  0  0  0  0
    8.3817   -6.5807    0.0000 C   0  0  0  0  0  0  0  0  0  0  0  0
    7.9182   -5.1541    0.0000 C   0  0  0  0  0  0  0  0  0  0  0  0
    6.4509   -4.8423    0.0000 O   0  0  0  0  0  0  0  0  0  0  0  0
    8.9218   -4.0394    0.0000 N   0  0  0  0  0  0  0  0  0  0  0  0
    8.4583   -2.6128    0.0000 C   0  0  0  0  0  0  0  0  0  0  0  0
    9.4620   -1.4981    0.0000 C   0  0  0  0  0  0  0  0  0  0  0  0
    8.9985   -0.0715    0.0000 C   0  0  0  0  0  0  0  0  0  0  0  0
    8.5350    1.3551    0.0000 C   0  0  0  0  0  0  0  0  0  0  0  0
    6.9911   -2.3009    0.0000 C   0  0  0  0  0  0  0  0  0  0  0  0
    5.9874   -3.4157    0.0000 O   0  0  0  0  0  0  0  0  0  0  0  0
    6.5276   -0.8744    0.0000 O   0  0  0  0  0  0  0  0  0  0  0  0
  2  1  1  6
  2  3  1  0
  3  4  1  0
  4  5  2  0
  5  6  1  0
  6  7  2  0
  7  8  1  0
  8  9  2  0
  2 10  1  0
 10 11  2  0
 10 12  1  0
 12 13  1  0
 13 14  1  6
 14 15  1  0
 15 16  1  0
 15 17  1  0
 13 18  1  0
 18 19  2  0
 18 20  1  0
 20 21  1  0
 21 22  1  1
 22 23  1  0
 23 24  1  0
 23 25  1  0
 21 26  1  0
 26 27  2  0
 26 28  1  0
 28 29  1  0
 29 30  1  0
 30 31  1  0
 31 32  1  0
 32 33  1  6
 33 34  2  0
 33 35  1  0
 35 36  1  0
 36 37  1  6
 37 38  1  0
 38 39  3  0
 36 40  1  0
 40 41  2  0
 40 42  1  0
  9  4  1  0
 32 28  1  0
M  END
$$$$

     RDKit          2D

 43 44  0  0  0  0  0  0  0  0999 V2000
   -0.7500   -3.8971    0.0000 N   0  0  0  0  0  0  0  0  0  0  0  0
   -1.5000   -5.1962    0.0000 C   0  0  0  0  0  0  0  0  0  0  0  0
    0.7500   -3.8971    0.0000 C   0  0  0  0  0  0  0  0  0  0  0  0
    1.5000   -2.5981    0.0000 C   0  0  0  0  0  0  0  0  0  0  0  0
    0.7500   -1.2990    0.0000 C   0  0  0  0  0  0  0  0  0  0  0  0
    1.5000    0.0000    0.0000 C   0  0  0  0  0  0  0  0  0  0  0  0
    0.7500    1.2990    0.0000 C   0  0  0  0  0  0  0  0  0  0  0  0
   -0.7500    1.2990    0.0000 C   0  0  0  0  0  0  0  0  0  0  0  0
   -1.5000    0.0000    0.0000 C   0  0  0  0  0  0  0  0  0  0  0  0
   -0.7500   -1.2990    0.0000 C   0  0  0  0  0  0  0  0  0  0  0  0
    1.5000   -5.1962    0.0000 C   0  0  0  0  0  0  0  0  0  0  0  0
    3.0000   -5.1962    0.0000 O   0  0  0  0  0  0  0  0  0  0  0  0
    0.7500   -6.4952    0.0000 N   0  0  0  0  0  0  0  0  0  0  0  0
    1.5000   -7.7942    0.0000 C   0  0  0  0  0  0  0  0  0  0  0  0
    0.7500   -9.0933    0.0000 C   0  0  0  0  0  0  0  0  0  0  0  0
    1.5000  -10.3923    0.0000 C   0  0  0  0  0  0  0  0  0  0  0  0
    0.7500  -11.6913    0.0000 C   0  0  0  0  0  0  0  0  0  0  0  0
    3.0000  -10.3923    0.0000 C   0  0  0  0  0  0  0  0  0  0  0  0
    3.0000   -7.7942    0.0000 C   0  0  0  0  0  0  0  0  0  0  0  0
    3.7500   -6.4952    0.0000 O   0  0  0  0  0  0  0  0  0  0  0  0
    3.7500   -9.0933    0.0000 N   0  0  0  0  0  0  0  0  0  0  0  0
    5.2500   -9.0933    0.0000 C   0  0  0  0  0  0  0  0  0  0  0  0
    6.0000  -10.3923    0.0000 C   0  0  0  0  0  0  0  0  0  0  0  0
    5.2500  -11.6913    0.0000 C   0  0  0  0  0  0  0  0  0  0  0  0
    6.0000  -12.9904    0.0000 C   0  0  0  0  0  0  0  0  0  0  0  0
    3.7500  -11.6913    0.0000 C   0  0  0  0  0  0  0  0  0  0  0  0
    6.0000   -7.7942    0.0000 C   0  0  0  0  0  0  0  0  0  0  0  0
    5.2500   -6.4952    0.0000 O   0  0  0  0  0  0  0  0  0  0  0  0
    7.5000   -7.7942    0.0000 N   0  0  0  0  0  0  0  0  0  0  0  0
    8.3817   -9.0078    0.0000 C   0  0  0  0  0  0  0  0  0  0  0  0
    9.8083   -8.5442    0.0000 C   0  0  0  0  0  0  0  0  0  0  0  0
    9.8083   -7.0442    0.0000 C   0  0  0  0  0  0  0  0  0  0  0  0
    8.3817   -6.5807    0.0000 C   0  0  0  0  0  0  0  0  0  0  0  0
    7.9182   -5.1541    0.0000 C   0  0  0  0  0  0  0  0  0  0  0  0
    6.4509   -4.8423    0.0000 O   0  0  0  0  0  0  0  0  0  0  0  0
    8.9218   -4.0394    0.0000 N   0  0  0  0  0  0  0  0  0  0  0  0
    8.4583   -2.6128    0.0000 C   0  0  0  0  0  0  0  0  0  0  0  0
    9.4620   -1.4981    0.0000 C   0  0  0  0  0  0  0  0  0  0  0  0
    8.9985   -0.0715    0.0000 C   0  0  0  0  0  0  0  0  0  0  0  0
    8.5350    1.3551    0.0000 C   0  0  0  0  0  0  0  0  0  0  0  0
    6.9911   -2.3009    0.0000 C   0  0  0  0  0  0  0  0  0  0  0  0
    5.9874   -3.4157    0.0000 O   0  0  0  0  0  0  0  0  0  0  0  0
    6.5276   -0.8744    0.0000 O   0  0  0  0  0  0  0  0  0  0  0  0
  1  2  1  0
  1  3  1  0
  3  4  1  1
  4  5  1  0
  5  6  2  0
  6  7  1  0
  7  8  2  0
  8  9  1  0
  9 10  2  0
  3 11  1  0
 11 12  2  0
 11 13  1  0
 13 14  1  0
 14 15  1  6
 15 16  1  0
 16 17  1  0
 16 18  1  0
 14 19  1  0
 19 20  2  0
 19 21  1  0
 21 22  1  0
 22 23  1  1
 23 24  1  0
 24 25  1  0
 24 26  1  0
 22 27  1  0
 27 28  2  0
 27 29  1  0
 29 30  1  0
 30 31  1  0
 31 32  1  0
 32 33  1  0
 33 34  1  6
 34 35  2  0
 34 36  1  0
 36 37  1  0
 37 38  1  6
 38 39  1  0
 39 40  3  0
 37 41  1  0
 41 42  2  0
 41 43  1  0
 10  5  1  0
 33 29  1  0
M  END
$$$$

     RDKit          2D

 43 44  0  0  0  0  0  0  0  0999 V2000
   -0.7500   -3.8971    0.0000 N   0  0  0  0  0  0  0  0  0  0  0  0
   -1.5000   -5.1962    0.0000 C   0  0  0  0  0  0  0  0  0  0  0  0
    0.7500   -3.8971    0.0000 C   0  0  0  0  0  0  0  0  0  0  0  0
    1.5000   -2.5981    0.0000 C   0  0  0  0  0  0  0  0  0  0  0  0
    0.7500   -1.2990    0.0000 C   0  0  0  0  0  0  0  0  0  0  0  0
    1.5000    0.0000    0.0000 C   0  0  0  0  0  0  0  0  0  0  0  0
    0.7500    1.2990    0.0000 C   0  0  0  0  0  0  0  0  0  0  0  0
   -0.7500    1.2990    0.0000 C   0  0  0  0  0  0  0  0  0  0  0  0
   -1.5000    0.0000    0.0000 C   0  0  0  0  0  0  0  0  0  0  0  0
   -0.7500   -1.2990    0.0000 C   0  0  0  0  0  0  0  0  0  0  0  0
    1.5000   -5.1962    0.0000 C   0  0  0  0  0  0  0  0  0  0  0  0
    3.0000   -5.1962    0.0000 O   0  0  0  0  0  0  0  0  0  0  0  0
    0.7500   -6.4952    0.0000 N   0  0  0  0  0  0  0  0  0  0  0  0
    1.5000   -7.7942    0.0000 C   0  0  0  0  0  0  0  0  0  0  0  0
    0.7500   -9.0933    0.0000 C   0  0  0  0  0  0  0  0  0  0  0  0
    1.5000  -10.3923    0.0000 C   0  0  0  0  0  0  0  0  0  0  0  0
    0.7500  -11.6913    0.0000 C   0  0  0  0  0  0  0  0  0  0  0  0
    3.0000  -10.3923    0.0000 C   0  0  0  0  0  0  0  0  0  0  0  0
    3.0000   -7.7942    0.0000 C   0  0  0  0  0  0  0  0  0  0  0  0
    3.7500   -6.4952    0.0000 O   0  0  0  0  0  0  0  0  0  0  0  0
    3.7500   -9.0933    0.0000 N   0  0  0  0  0  0  0  0  0  0  0  0
    5.2500   -9.0933    0.0000 C   0  0  0  0  0  0  0  0  0  0  0  0
    6.0000  -10.3923    0.0000 C   0  0  0  0  0  0  0  0  0  0  0  0
    5.2500  -11.6913    0.0000 C   0  0  0  0  0  0  0  0  0  0  0  0
    6.0000  -12.9904    0.0000 C   0  0  0  0  0  0  0  0  0  0  0  0
    3.7500  -11.6913    0.0000 C   0  0  0  0  0  0  0  0  0  0  0  0
    6.0000   -7.7942    0.0000 C   0  0  0  0  0  0  0  0  0  0  0  0
    5.2500   -6.4952    0.0000 O   0  0  0  0  0  0  0  0  0  0  0  0
    7.5000   -7.7942    0.0000 N   0  0  0  0  0  0  0  0  0  0  0  0
    8.3817   -9.0078    0.0000 C   0  0  0  0  0  0  0  0  0  0  0  0
    9.8083   -8.5442    0.0000 C   0  0  0  0  0  0  0  0  0  0  0  0
    9.8083   -7.0442    0.0000 C   0  0  0  0  0  0  0  0  0  0  0  0
    8.3817   -6.5807    0.0000 C   0  0  0  0  0  0  0  0  0  0  0  0
    7.9182   -5.1541    0.0000 C   0  0  0  0  0  0  0  0  0  0  0  0
    6.4509   -4.8423    0.0000 O   0  0  0  0  0  0  0  0  0  0  0  0
    8.9218   -4.0394    0.0000 N   0  0  0  0  0  0  0  0  0  0  0  0
    8.4583   -2.6128    0.0000 C   0  0  0  0  0  0  0  0  0  0  0  0
    9.4620   -1.4981    0.0000 C   0  0  0  0  0  0  0  0  0  0  0  0
    8.9985   -0.0715    0.0000 C   0  0  0  0  0  0  0  0  0  0  0  0
    8.5350    1.3551    0.0000 C   0  0  0  0  0  0  0  0  0  0  0  0
    6.9911   -2.3009    0.0000 C   0  0  0  0  0  0  0  0  0  0  0  0
    5.9874   -3.4157    0.0000 O   0  0  0  0  0  0  0  0  0  0  0  0
    6.5276   -0.8744    0.0000 O   0  0  0  0  0  0  0  0  0  0  0  0
  1  2  1  0
  1  3  1  0
  3  4  1  6
  4  5  1  0
  5  6  2  0
  6  7  1  0
  7  8  2  0
  8  9  1  0
  9 10  2  0
  3 11  1  0
 11 12  2  0
 11 13  1  0
 13 14  1  0
 14 15  1  6
 15 16  1  0
 16 17  1  0
 16 18  1  0
 14 19  1  0
 19 20  2  0
 19 21  1  0
 21 22  1  0
 22 23  1  1
 23 24  1  0
 24 25  1  0
 24 26  1  0
 22 27  1  0
 27 28  2  0
 27 29  1  0
 29 30  1  0
 30 31  1  0
 31 32  1  0
 32 33  1  0
 33 34  1  6
 34 35  2  0
 34 36  1  0
 36 37  1  0
 37 38  1  6
 38 39  1  0
 39 40  3  0
 37 41  1  0
 41 42  2  0
 41 43  1  0
 10  5  1  0
 33 29  1  0
M  END
$$$$

     RDKit          2D

 38 38  0  0  0  0  0  0  0  0999 V2000
   -1.7240    5.1962    0.0000 N   0  0  0  0  0  0  0  0  0  0  0  0
   -0.9740    6.4952    0.0000 C   0  0  0  0  0  0  0  0  0  0  0  0
   -1.7240    7.7942    0.0000 C   0  0  0  0  0  0  0  0  0  0  0  0
   -0.9740    9.0933    0.0000 O   0  0  0  0  0  0  0  0  0  0  0  0
   -3.2240    7.7942    0.0000 C   0  0  0  0  0  0  0  0  0  0  0  0
    0.5260    6.4952    0.0000 C   0  0  0  0  0  0  0  0  0  0  0  0
    1.2760    7.7942    0.0000 O   0  0  0  0  0  0  0  0  0  0  0  0
    1.2760    5.1962    0.0000 N   0  0  0  0  0  0  0  0  0  0  0  0
    2.7760    5.1962    0.0000 C   0  0  0  0  0  0  0  0  0  0  0  0
    3.5260    6.4952    0.0000 C   0  0  0  0  0  0  0  0  0  0  0  0
    5.0260    6.4952    0.0000 C   0  0  0  0  0  0  0  0  0  0  0  0
    5.7760    7.7942    0.0000 C   0  0  0  0  0  0  0  0  0  0  0  0
    5.7760    5.1962    0.0000 C   0  0  0  0  0  0  0  0  0  0  0  0
    3.5260    3.8971    0.0000 C   0  0  0  0  0  0  0  0  0  0  0  0
    5.0260    3.8971    0.0000 O   0  0  0  0  0  0  0  0  0  0  0  0
    2.7760    2.5981    0.0000 N   0  0  0  0  0  0  0  0  0  0  0  0
    3.5260    1.2990    0.0000 C   0  0  0  0  0  0  0  0  0  0  0  0
    5.0260    1.2990    0.0000 C   0  0  0  0  0  0  0  0  0  0  0  0
    5.7760    0.0000    0.0000 C   0  0  0  0  0  0  0  0  0  0  0  0
    7.2760    0.0000    0.0000 C   0  0  0  0  0  0  0  0  0  0  0  0
    5.0260   -1.2990    0.0000 C   0  0  0  0  0  0  0  0  0  0  0  0
    2.7760    0.0000    0.0000 C   0  0  0  0  0  0  0  0  0  0  0  0
    3.5260   -1.2990    0.0000 O   0  0  0  0  0  0  0  0  0  0  0  0
    1.2760    0.0000    0.0000 N   0  0  0  0  0  0  0  0  0  0  0  0
    0.3943    1.2135    0.0000 C   0  0  0  0  0  0  0  0  0  0  0  0
   -1.0323    0.7500    0.0000 C   0  0  0  0  0  0  0  0  0  0  0  0
   -1.0323   -0.7500    0.0000 C   0  0  0  0  0  0  0  0  0  0  0  0
    0.3943   -1.2135    0.0000 C   0  0  0  0  0  0  0  0  0  0  0  0
    0.8578   -2.6401    0.0000 C   0  0  0  0  0  0  0  0  0  0  0  0
    2.3250   -2.9520    0.0000 O   0  0  0  0  0  0  0  0  0  0  0  0
   -0.1459   -3.7548    0.0000 N   0  0  0  0  0  0  0  0  0  0  0  0
    0.3177   -5.1814    0.0000 C   0  0  0  0  0  0  0  0  0  0  0  0
   -0.6860   -6.2961    0.0000 C   0  0  0  0  0  0  0  0  0  0  0  0
   -0.2225   -7.7227    0.0000 C   0  0  0  0  0  0  0  0  0  0  0  0
    0.2410   -9.1493    0.0000 C   0  0  0  0  0  0  0  0  0  0  0  0
    1.7849   -5.4933    0.0000 C   0  0  0  0  0  0  0  0  0  0  0  0
    2.7886   -4.3786    0.0000 O   0  0  0  0  0  0  0  0  0  0  0  0
    2.2484   -6.9199    0.0000 O   0  0  0  0  0  0  0  0  0  0  0  0
  2  1  1  1
  2  3  1  0
  3  4  1  0
  3  5  1  1
  2  6  1  0
  6  7  2  0
  6  8  1  0
  8  9  1  0
  9 10  1  1
 10 11  1  0
 11 12  1  0
 11 13  1  0
  9 14  1  0
 14 15  2  0
 14 16  1  0
 16 17  1  0
 17 18  1  6
 18 19  1  0
 19 20  1  0
 19 21  1  0
 17 22  1  0
 22 23  2  0
 22 24  1  0
 24 25  1  0
 25 26  1  0
 26 27  1  0
 27 28  1  0
 28 29  1  6
 29 30  2  0
 29 31  1  0
 31 32  1  0
 32 33  1  6
 33 34  1  0
 34 35  3  0
 32 36  1  0
 36 37  2  0
 36 38  1  0
 28 24  1  0
M  END
$$$$

     RDKit          2D

 38 38  0  0  0  0  0  0  0  0999 V2000
   -1.7240    5.1962    0.0000 N   0  0  0  0  0  0  0  0  0  0  0  0
   -0.9740    6.4952    0.0000 C   0  0  0  0  0  0  0  0  0  0  0  0
   -1.7240    7.7942    0.0000 C   0  0  0  0  0  0  0  0  0  0  0  0
   -0.9740    9.0933    0.0000 O   0  0  0  0  0  0  0  0  0  0  0  0
   -3.2240    7.7942    0.0000 C   0  0  0  0  0  0  0  0  0  0  0  0
    0.5260    6.4952    0.0000 C   0  0  0  0  0  0  0  0  0  0  0  0
    1.2760    7.7942    0.0000 O   0  0  0  0  0  0  0  0  0  0  0  0
    1.2760    5.1962    0.0000 N   0  0  0  0  0  0  0  0  0  0  0  0
    2.7760    5.1962    0.0000 C   0  0  0  0  0  0  0  0  0  0  0  0
    3.5260    6.4952    0.0000 C   0  0  0  0  0  0  0  0  0  0  0  0
    5.0260    6.4952    0.0000 C   0  0  0  0  0  0  0  0  0  0  0  0
    5.7760    7.7942    0.0000 C   0  0  0  0  0  0  0  0  0  0  0  0
    5.7760    5.1962    0.0000 C   0  0  0  0  0  0  0  0  0  0  0  0
    3.5260    3.8971    0.0000 C   0  0  0  0  0  0  0  0  0  0  0  0
    5.0260    3.8971    0.0000 O   0  0  0  0  0  0  0  0  0  0  0  0
    2.7760    2.5981    0.0000 N   0  0  0  0  0  0  0  0  0  0  0  0
    3.5260    1.2990    0.0000 C   0  0  0  0  0  0  0  0  0  0  0  0
    5.0260    1.2990    0.0000 C   0  0  0  0  0  0  0  0  0  0  0  0
    5.7760    0.0000    0.0000 C   0  0  0  0  0  0  0  0  0  0  0  0
    7.2760    0.0000    0.0000 C   0  0  0  0  0  0  0  0  0  0  0  0
    5.0260   -1.2990    0.0000 C   0  0  0  0  0  0  0  0  0  0  0  0
    2.7760    0.0000    0.0000 C   0  0  0  0  0  0  0  0  0  0  0  0
    3.5260   -1.2990    0.0000 O   0  0  0  0  0  0  0  0  0  0  0  0
    1.2760    0.0000    0.0000 N   0  0  0  0  0  0  0  0  0  0  0  0
    0.3943    1.2135    0.0000 C   0  0  0  0  0  0  0  0  0  0  0  0
   -1.0323    0.7500    0.0000 C   0  0  0  0  0  0  0  0  0  0  0  0
   -1.0323   -0.7500    0.0000 C   0  0  0  0  0  0  0  0  0  0  0  0
    0.3943   -1.2135    0.0000 C   0  0  0  0  0  0  0  0  0  0  0  0
    0.8578   -2.6401    0.0000 C   0  0  0  0  0  0  0  0  0  0  0  0
    2.3250   -2.9520    0.0000 O   0  0  0  0  0  0  0  0  0  0  0  0
   -0.1459   -3.7548    0.0000 N   0  0  0  0  0  0  0  0  0  0  0  0
    0.3177   -5.1814    0.0000 C   0  0  0  0  0  0  0  0  0  0  0  0
   -0.6860   -6.2961    0.0000 C   0  0  0  0  0  0  0  0  0  0  0  0
   -0.2225   -7.7227    0.0000 C   0  0  0  0  0  0  0  0  0  0  0  0
    0.2410   -9.1493    0.0000 C   0  0  0  0  0  0  0  0  0  0  0  0
    1.7849   -5.4933    0.0000 C   0  0  0  0  0  0  0  0  0  0  0  0
    2.7886   -4.3786    0.0000 O   0  0  0  0  0  0  0  0  0  0  0  0
    2.2484   -6.9199    0.0000 O   0  0  0  0  0  0  0  0  0  0  0  0
  2  1  1  6
  2  3  1  0
  3  4  1  0
  3  5  1  1
  2  6  1  0
  6  7  2  0
  6  8  1  0
  8  9  1  0
  9 10  1  1
 10 11  1  0
 11 12  1  0
 11 13  1  0
  9 14  1  0
 14 15  2  0
 14 16  1  0
 16 17  1  0
 17 18  1  6
 18 19  1  0
 19 20  1  0
 19 21  1  0
 17 22  1  0
 22 23  2  0
 22 24  1  0
 24 25  1  0
 25 26  1  0
 26 27  1  0
 27 28  1  0
 28 29  1  6
 29 30  2  0
 29 31  1  0
 31 32  1  0
 32 33  1  6
 33 34  1  0
 34 35  3  0
 32 36  1  0
 36 37  2  0
 36 38  1  0
 28 24  1  0
M  END
$$$$

     RDKit          2D

 39 39  0  0  0  0  0  0  0  0999 V2000
   -1.7240    5.1962    0.0000 N   0  0  0  0  0  0  0  0  0  0  0  0
   -3.2240    5.1962    0.0000 C   0  0  0  0  0  0  0  0  0  0  0  0
   -0.9740    6.4952    0.0000 C   0  0  0  0  0  0  0  0  0  0  0  0
   -1.7240    7.7942    0.0000 C   0  0  0  0  0  0  0  0  0  0  0  0
   -0.9740    9.0933    0.0000 O   0  0  0  0  0  0  0  0  0  0  0  0
   -3.2240    7.7942    0.0000 C   0  0  0  0  0  0  0  0  0  0  0  0
    0.5260    6.4952    0.0000 C   0  0  0  0  0  0  0  0  0  0  0  0
    1.2760    7.7942    0.0000 O   0  0  0  0  0  0  0  0  0  0  0  0
    1.2760    5.1962    0.0000 N   0  0  0  0  0  0  0  0  0  0  0  0
    2.7760    5.1962    0.0000 C   0  0  0  0  0  0  0  0  0  0  0  0
    3.5260    6.4952    0.0000 C   0  0  0  0  0  0  0  0  0  0  0  0
    5.0260    6.4952    0.0000 C   0  0  0  0  0  0  0  0  0  0  0  0
    5.7760    7.7942    0.0000 C   0  0  0  0  0  0  0  0  0  0  0  0
    5.7760    5.1962    0.0000 C   0  0  0  0  0  0  0  0  0  0  0  0
    3.5260    3.8971    0.0000 C   0  0  0  0  0  0  0  0  0  0  0  0
    5.0260    3.8971    0.0000 O   0  0  0  0  0  0  0  0  0  0  0  0
    2.7760    2.5981    0.0000 N   0  0  0  0  0  0  0  0  0  0  0  0
    3.5260    1.2990    0.0000 C   0  0  0  0  0  0  0  0  0  0  0  0
    5.0260    1.2990    0.0000 C   0  0  0  0  0  0  0  0  0  0  0  0
    5.7760    0.0000    0.0000 C   0  0  0  0  0  0  0  0  0  0  0  0
    5.0260   -1.2990    0.0000 C   0  0  0  0  0  0  0  0  0  0  0  0
    7.2760    0.0000    0.0000 C   0  0  0  0  0  0  0  0  0  0  0  0
    2.7760    0.0000    0.0000 C   0  0  0  0  0  0  0  0  0  0  0  0
    3.5260   -1.2990    0.0000 O   0  0  0  0  0  0  0  0  0  0  0  0
    1.2760    0.0000    0.0000 N   0  0  0  0  0  0  0  0  0  0  0  0
    0.3943    1.2135    0.0000 C   0  0  0  0  0  0  0  0  0  0  0  0
   -1.0323    0.7500    0.0000 C   0  0  0  0  0  0  0  0  0  0  0  0
   -1.0323   -0.7500    0.0000 C   0  0  0  0  0  0  0  0  0  0  0  0
    0.3943   -1.2135    0.0000 C   0  0  0  0  0  0  0  0  0  0  0  0
    0.8578   -2.6401    0.0000 C   0  0  0  0  0  0  0  0  0  0  0  0
    2.3250   -2.9520    0.0000 O   0  0  0  0  0  0  0  0  0  0  0  0
   -0.1459   -3.7548    0.0000 N   0  0  0  0  0  0  0  0  0  0  0  0
    0.3177   -5.1814    0.0000 C   0  0  0  0  0  0  0  0  0  0  0  0
   -0.6860   -6.2961    0.0000 C   0  0  0  0  0  0  0  0  0  0  0  0
   -0.2225   -7.7227    0.0000 C   0  0  0  0  0  0  0  0  0  0  0  0
    0.2410   -9.1493    0.0000 C   0  0  0  0  0  0  0  0  0  0  0  0
    1.7849   -5.4933    0.0000 C   0  0  0  0  0  0  0  0  0  0  0  0
    2.7886   -4.3786    0.0000 O   0  0  0  0  0  0  0  0  0  0  0  0
    2.2484   -6.9199    0.0000 O   0  0  0  0  0  0  0  0  0  0  0  0
  1  2  1  0
  3  1  1  1
  3  4  1  0
  4  5  1  0
  4  6  1  1
  3  7  1  0
  7  8  2  0
  7  9  1  0
  9 10  1  0
 10 11  1  1
 11 12  1  0
 12 13  1  0
 12 14  1  0
 10 15  1  0
 15 16  2  0
 15 17  1  0
 17 18  1  0
 18 19  1  6
 19 20  1  0
 20 21  1  0
 20 22  1  0
 18 23  1  0
 23 24  2  0
 23 25  1  0
 25 26  1  0
 26 27  1  0
 27 28  1  0
 28 29  1  0
 29 30  1  6
 30 31  2  0
 30 32  1  0
 32 33  1  0
 33 34  1  6
 34 35  1  0
 35 36  3  0
 33 37  1  0
 37 38  2  0
 37 39  1  0
 29 25  1  0
M  END
$$$$

     RDKit          2D

 39 39  0  0  0  0  0  0  0  0999 V2000
   -1.7240    5.1962    0.0000 N   0  0  0  0  0  0  0  0  0  0  0  0
   -3.2240    5.1962    0.0000 C   0  0  0  0  0  0  0  0  0  0  0  0
   -0.9740    6.4952    0.0000 C   0  0  0  0  0  0  0  0  0  0  0  0
   -1.7240    7.7942    0.0000 C   0  0  0  0  0  0  0  0  0  0  0  0
   -0.9740    9.0933    0.0000 O   0  0  0  0  0  0  0  0  0  0  0  0
   -3.2240    7.7942    0.0000 C   0  0  0  0  0  0  0  0  0  0  0  0
    0.5260    6.4952    0.0000 C   0  0  0  0  0  0  0  0  0  0  0  0
    1.2760    7.7942    0.0000 O   0  0  0  0  0  0  0  0  0  0  0  0
    1.2760    5.1962    0.0000 N   0  0  0  0  0  0  0  0  0  0  0  0
    2.7760    5.1962    0.0000 C   0  0  0  0  0  0  0  0  0  0  0  0
    3.5260    6.4952    0.0000 C   0  0  0  0  0  0  0  0  0  0  0  0
    5.0260    6.4952    0.0000 C   0  0  0  0  0  0  0  0  0  0  0  0
    5.7760    7.7942    0.0000 C   0  0  0  0  0  0  0  0  0  0  0  0
    5.7760    5.1962    0.0000 C   0  0  0  0  0  0  0  0  0  0  0  0
    3.5260    3.8971    0.0000 C   0  0  0  0  0  0  0  0  0  0  0  0
    5.0260    3.8971    0.0000 O   0  0  0  0  0  0  0  0  0  0  0  0
    2.7760    2.5981    0.0000 N   0  0  0  0  0  0  0  0  0  0  0  0
    3.5260    1.2990    0.0000 C   0  0  0  0  0  0  0  0  0  0  0  0
    5.0260    1.2990    0.0000 C   0  0  0  0  0  0  0  0  0  0  0  0
    5.7760    0.0000    0.0000 C   0  0  0  0  0  0  0  0  0  0  0  0
    5.0260   -1.2990    0.0000 C   0  0  0  0  0  0  0  0  0  0  0  0
    7.2760    0.0000    0.0000 C   0  0  0  0  0  0  0  0  0  0  0  0
    2.7760    0.0000    0.0000 C   0  0  0  0  0  0  0  0  0  0  0  0
    3.5260   -1.2990    0.0000 O   0  0  0  0  0  0  0  0  0  0  0  0
    1.2760    0.0000    0.0000 N   0  0  0  0  0  0  0  0  0  0  0  0
    0.3943    1.2135    0.0000 C   0  0  0  0  0  0  0  0  0  0  0  0
   -1.0323    0.7500    0.0000 C   0  0  0  0  0  0  0  0  0  0  0  0
   -1.0323   -0.7500    0.0000 C   0  0  0  0  0  0  0  0  0  0  0  0
    0.3943   -1.2135    0.0000 C   0  0  0  0  0  0  0  0  0  0  0  0
    0.8578   -2.6401    0.0000 C   0  0  0  0  0  0  0  0  0  0  0  0
    2.3250   -2.9520    0.0000 O   0  0  0  0  0  0  0  0  0  0  0  0
   -0.1459   -3.7548    0.0000 N   0  0  0  0  0  0  0  0  0  0  0  0
    0.3177   -5.1814    0.0000 C   0  0  0  0  0  0  0  0  0  0  0  0
   -0.6860   -6.2961    0.0000 C   0  0  0  0  0  0  0  0  0  0  0  0
   -0.2225   -7.7227    0.0000 C   0  0  0  0  0  0  0  0  0  0  0  0
    0.2410   -9.1493    0.0000 C   0  0  0  0  0  0  0  0  0  0  0  0
    1.7849   -5.4933    0.0000 C   0  0  0  0  0  0  0  0  0  0  0  0
    2.7886   -4.3786    0.0000 O   0  0  0  0  0  0  0  0  0  0  0  0
    2.2484   -6.9199    0.0000 O   0  0  0  0  0  0  0  0  0  0  0  0
  1  2  1  0
  3  1  1  6
  3  4  1  0
  4  5  1  0
  4  6  1  1
  3  7  1  0
  7  8  2  0
  7  9  1  0
  9 10  1  0
 10 11  1  1
 11 12  1  0
 12 13  1  0
 12 14  1  0
 10 15  1  0
 15 16  2  0
 15 17  1  0
 17 18  1  0
 18 19  1  6
 19 20  1  0
 20 21  1  0
 20 22  1  0
 18 23  1  0
 23 24  2  0
 23 25  1  0
 25 26  1  0
 26 27  1  0
 27 28  1  0
 28 29  1  0
 29 30  1  6
 30 31  2  0
 30 32  1  0
 32 33  1  0
 33 34  1  6
 34 35  1  0
 35 36  3  0
 33 37  1  0
 37 38  2  0
 37 39  1  0
 29 25  1  0
M  END
$$$$

     RDKit          2D

 39 39  0  0  0  0  0  0  0  0999 V2000
   -1.7240    7.7942    0.0000 N   0  0  0  0  0  0  0  0  0  0  0  0
   -3.2240    7.7942    0.0000 C   0  0  0  0  0  0  0  0  0  0  0  0
   -3.9740    9.0933    0.0000 C   0  0  0  0  0  0  0  0  0  0  0  0
   -5.4740    9.0933    0.0000 C   0  0  0  0  0  0  0  0  0  0  0  0
   -3.2240   10.3923    0.0000 C   0  0  0  0  0  0  0  0  0  0  0  0
   -0.9740    6.4952    0.0000 C   0  0  0  0  0  0  0  0  0  0  0  0
    0.5260    6.4952    0.0000 C   0  0  0  0  0  0  0  0  0  0  0  0
    1.2760    7.7942    0.0000 O   0  0  0  0  0  0  0  0  0  0  0  0
    1.2760    5.1962    0.0000 N   0  0  0  0  0  0  0  0  0  0  0  0
    2.7760    5.1962    0.0000 C   0  0  0  0  0  0  0  0  0  0  0  0
    3.5260    6.4952    0.0000 C   0  0  0  0  0  0  0  0  0  0  0  0
    5.0260    6.4952    0.0000 C   0  0  0  0  0  0  0  0  0  0  0  0
    5.7760    7.7942    0.0000 C   0  0  0  0  0  0  0  0  0  0  0  0
    5.7760    5.1962    0.0000 C   0  0  0  0  0  0  0  0  0  0  0  0
    3.5260    3.8971    0.0000 C   0  0  0  0  0  0  0  0  0  0  0  0
    5.0260    3.8971    0.0000 O   0  0  0  0  0  0  0  0  0  0  0  0
    2.7760    2.5981    0.0000 N   0  0  0  0  0  0  0  0  0  0  0  0
    3.5260    1.2990    0.0000 C   0  0  0  0  0  0  0  0  0  0  0  0
    5.0260    1.2990    0.0000 C   0  0  0  0  0  0  0  0  0  0  0  0
    5.7760    0.0000    0.0000 C   0  0  0  0  0  0  0  0  0  0  0  0
    7.2760    0.0000    0.0000 C   0  0  0  0  0  0  0  0  0  0  0  0
    5.0260   -1.2990    0.0000 C   0  0  0  0  0  0  0  0  0  0  0  0
    2.7760    0.0000    0.0000 C   0  0  0  0  0  0  0  0  0  0  0  0
    3.5260   -1.2990    0.0000 O   0  0  0  0  0  0  0  0  0  0  0  0
    1.2760    0.0000    0.0000 N   0  0  0  0  0  0  0  0  0  0  0  0
    0.3943    1.2135    0.0000 C   0  0  0  0  0  0  0  0  0  0  0  0
   -1.0323    0.7500    0.0000 C   0  0  0  0  0  0  0  0  0  0  0  0
   -1.0323   -0.7500    0.0000 C   0  0  0  0  0  0  0  0  0  0  0  0
    0.3943   -1.2135    0.0000 C   0  0  0  0  0  0  0  0  0  0  0  0
    0.8578   -2.6401    0.0000 C   0  0  0  0  0  0  0  0  0  0  0  0
    2.3250   -2.9520    0.0000 O   0  0  0  0  0  0  0  0  0  0  0  0
   -0.1459   -3.7548    0.0000 N   0  0  0  0  0  0  0  0  0  0  0  0
    0.3177   -5.1814    0.0000 C   0  0  0  0  0  0  0  0  0  0  0  0
   -0.6860   -6.2961    0.0000 C   0  0  0  0  0  0  0  0  0  0  0  0
   -0.2225   -7.7227    0.0000 C   0  0  0  0  0  0  0  0  0  0  0  0
    0.2410   -9.1493    0.0000 C   0  0  0  0  0  0  0  0  0  0  0  0
    1.7849   -5.4933    0.0000 C   0  0  0  0  0  0  0  0  0  0  0  0
    2.7886   -4.3786    0.0000 O   0  0  0  0  0  0  0  0  0  0  0  0
    2.2484   -6.9199    0.0000 O   0  0  0  0  0  0  0  0  0  0  0  0
  1  2  1  0
  2  3  1  0
  3  4  1  0
  3  5  1  0
  1  6  1  0
  6  7  1  0
  7  8  2  0
  7  9  1  0
  9 10  1  0
 10 11  1  1
 11 12  1  0
 12 13  1  0
 12 14  1  0
 10 15  1  0
 15 16  2  0
 15 17  1  0
 17 18  1  0
 18 19  1  6
 19 20  1  0
 20 21  1  0
 20 22  1  0
 18 23  1  0
 23 24  2  0
 23 25  1  0
 25 26  1  0
 26 27  1  0
 27 28  1  0
 28 29  1  0
 29 30  1  6
 30 31  2  0
 30 32  1  0
 32 33  1  0
 33 34  1  6
 34 35  1  0
 35 36  3  0
 33 37  1  0
 37 38  2  0
 37 39  1  0
 29 25  1  0
M  END
$$$$

     RDKit          2D

 42 42  0  0  0  0  0  0  0  0999 V2000
   -1.7240    7.7942    0.0000 N   0  0  0  0  0  0  0  0  0  0  0  0
   -3.2240    7.7942    0.0000 C   0  0  0  0  0  0  0  0  0  0  0  0
   -3.9740    9.0933    0.0000 C   0  0  0  0  0  0  0  0  0  0  0  0
   -5.4740    9.0933    0.0000 C   0  0  0  0  0  0  0  0  0  0  0  0
   -6.2240   10.3923    0.0000 O   0  0  0  0  0  0  0  0  0  0  0  0
   -7.7240   10.3923    0.0000 C   0  0  0  0  0  0  0  0  0  0  0  0
   -8.4740   11.6913    0.0000 C   0  0  0  0  0  0  0  0  0  0  0  0
   -8.4740    9.0933    0.0000 C   0  0  0  0  0  0  0  0  0  0  0  0
   -0.9740    6.4952    0.0000 C   0  0  0  0  0  0  0  0  0  0  0  0
    0.5260    6.4952    0.0000 C   0  0  0  0  0  0  0  0  0  0  0  0
    1.2760    7.7942    0.0000 O   0  0  0  0  0  0  0  0  0  0  0  0
    1.2760    5.1962    0.0000 N   0  0  0  0  0  0  0  0  0  0  0  0
    2.7760    5.1962    0.0000 C   0  0  0  0  0  0  0  0  0  0  0  0
    3.5260    6.4952    0.0000 C   0  0  0  0  0  0  0  0  0  0  0  0
    5.0260    6.4952    0.0000 C   0  0  0  0  0  0  0  0  0  0  0  0
    5.7760    7.7942    0.0000 C   0  0  0  0  0  0  0  0  0  0  0  0
    5.7760    5.1962    0.0000 C   0  0  0  0  0  0  0  0  0  0  0  0
    3.5260    3.8971    0.0000 C   0  0  0  0  0  0  0  0  0  0  0  0
    5.0260    3.8971    0.0000 O   0  0  0  0  0  0  0  0  0  0  0  0
    2.7760    2.5981    0.0000 N   0  0  0  0  0  0  0  0  0  0  0  0
    3.5260    1.2990    0.0000 C   0  0  0  0  0  0  0  0  0  0  0  0
    5.0260    1.2990    0.0000 C   0  0  0  0  0  0  0  0  0  0  0  0
    5.7760    0.0000    0.0000 C   0  0  0  0  0  0  0  0  0  0  0  0
    7.2760    0.0000    0.0000 C   0  0  0  0  0  0  0  0  0  0  0  0
    5.0260   -1.2990    0.0000 C   0  0  0  0  0  0  0  0  0  0  0  0
    2.7760    0.0000    0.0000 C   0  0  0  0  0  0  0  0  0  0  0  0
    3.5260   -1.2990    0.0000 O   0  0  0  0  0  0  0  0  0  0  0  0
    1.2760    0.0000    0.0000 N   0  0  0  0  0  0  0  0  0  0  0  0
    0.3943    1.2135    0.0000 C   0  0  0  0  0  0  0  0  0  0  0  0
   -1.0323    0.7500    0.0000 C   0  0  0  0  0  0  0  0  0  0  0  0
   -1.0323   -0.7500    0.0000 C   0  0  0  0  0  0  0  0  0  0  0  0
    0.3943   -1.2135    0.0000 C   0  0  0  0  0  0  0  0  0  0  0  0
    0.8578   -2.6401    0.0000 C   0  0  0  0  0  0  0  0  0  0  0  0
    2.3250   -2.9520    0.0000 O   0  0  0  0  0  0  0  0  0  0  0  0
   -0.1459   -3.7548    0.0000 N   0  0  0  0  0  0  0  0  0  0  0  0
    0.3177   -5.1814    0.0000 C   0  0  0  0  0  0  0  0  0  0  0  0
   -0.6860   -6.2961    0.0000 C   0  0  0  0  0  0  0  0  0  0  0  0
   -0.2225   -7.7227    0.0000 C   0  0  0  0  0  0  0  0  0  0  0  0
    0.2410   -9.1493    0.0000 C   0  0  0  0  0  0  0  0  0  0  0  0
    1.7849   -5.4933    0.0000 C   0  0  0  0  0  0  0  0  0  0  0  0
    2.7886   -4.3786    0.0000 O   0  0  0  0  0  0  0  0  0  0  0  0
    2.2484   -6.9199    0.0000 O   0  0  0  0  0  0  0  0  0  0  0  0
  1  2  1  0
  2  3  1  0
  3  4  1  0
  4  5  1  0
  5  6  1  0
  6  7  1  0
  6  8  1  0
  1  9  1  0
  9 10  1  0
 10 11  2  0
 10 12  1  0
 12 13  1  0
 13 14  1  1
 14 15  1  0
 15 16  1  0
 15 17  1  0
 13 18  1  0
 18 19  2  0
 18 20  1  0
 20 21  1  0
 21 22  1  6
 22 23  1  0
 23 24  1  0
 23 25  1  0
 21 26  1  0
 26 27  2  0
 26 28  1  0
 28 29  1  0
 29 30  1  0
 30 31  1  0
 31 32  1  0
 32 33  1  6
 33 34  2  0
 33 35  1  0
 35 36  1  0
 36 37  1  6
 37 38  1  0
 38 39  3  0
 36 40  1  0
 40 41  2  0
 40 42  1  0
 32 28  1  0
M  END
$$$$

     RDKit          2D

 44 45  0  0  0  0  0  0  0  0999 V2000
    0.7500   -6.4952    0.0000 N   0  0  0  0  0  0  0  0  0  0  0  0
    1.5000   -5.1962    0.0000 C   0  0  0  0  0  0  0  0  0  0  0  0
    0.7500   -3.8971    0.0000 C   0  0  0  0  0  0  0  0  0  0  0  0
    1.5000   -2.5981    0.0000 O   0  0  0  0  0  0  0  0  0  0  0  0
    0.7500   -1.2990    0.0000 C   0  0  0  0  0  0  0  0  0  0  0  0
    1.5000    0.0000    0.0000 C   0  0  0  0  0  0  0  0  0  0  0  0
    0.7500    1.2990    0.0000 C   0  0  0  0  0  0  0  0  0  0  0  0
   -0.7500    1.2990    0.0000 C   0  0  0  0  0  0  0  0  0  0  0  0
   -1.5000    0.0000    0.0000 C   0  0  0  0  0  0  0  0  0  0  0  0
   -0.7500   -1.2990    0.0000 C   0  0  0  0  0  0  0  0  0  0  0  0
    1.5000   -7.7942    0.0000 C   0  0  0  0  0  0  0  0  0  0  0  0
    0.7500   -9.0933    0.0000 C   0  0  0  0  0  0  0  0  0  0  0  0
   -0.7500   -9.0933    0.0000 O   0  0  0  0  0  0  0  0  0  0  0  0
    1.5000  -10.3923    0.0000 N   0  0  0  0  0  0  0  0  0  0  0  0
    0.7500  -11.6913    0.0000 C   0  0  0  0  0  0  0  0  0  0  0  0
    1.5000  -12.9904    0.0000 C   0  0  0  0  0  0  0  0  0  0  0  0
    0.7500  -14.2894    0.0000 C   0  0  0  0  0  0  0  0  0  0  0  0
    1.5000  -15.5885    0.0000 C   0  0  0  0  0  0  0  0  0  0  0  0
   -0.7500  -14.2894    0.0000 C   0  0  0  0  0  0  0  0  0  0  0  0
   -0.7500  -11.6913    0.0000 C   0  0  0  0  0  0  0  0  0  0  0  0
   -1.5000  -10.3923    0.0000 O   0  0  0  0  0  0  0  0  0  0  0  0
   -1.5000  -12.9904    0.0000 N   0  0  0  0  0  0  0  0  0  0  0  0
   -3.0000  -12.9904    0.0000 C   0  0  0  0  0  0  0  0  0  0  0  0
   -3.7500  -14.2894    0.0000 C   0  0  0  0  0  0  0  0  0  0  0  0
   -3.0000  -15.5885    0.0000 C   0  0  0  0  0  0  0  0  0  0  0  0
   -3.7500  -16.8875    0.0000 C   0  0  0  0  0  0  0  0  0  0  0  0
   -1.5000  -15.5885    0.0000 C   0  0  0  0  0  0  0  0  0  0  0  0
   -3.7500  -11.6913    0.0000 C   0  0  0  0  0  0  0  0  0  0  0  0
   -3.0000  -10.3923    0.0000 O   0  0  0  0  0  0  0  0  0  0  0  0
   -5.2500  -11.6913    0.0000 N   0  0  0  0  0  0  0  0  0  0  0  0
   -6.1317  -12.9049    0.0000 C   0  0  0  0  0  0  0  0  0  0  0  0
   -7.5583  -12.4413    0.0000 C   0  0  0  0  0  0  0  0  0  0  0  0
   -7.5583  -10.9413    0.0000 C   0  0  0  0  0  0  0  0  0  0  0  0
   -6.1317  -10.4778    0.0000 C   0  0  0  0  0  0  0  0  0  0  0  0
   -5.6682   -9.0512    0.0000 C   0  0  0  0  0  0  0  0  0  0  0  0
   -4.2009   -8.7394    0.0000 O   0  0  0  0  0  0  0  0  0  0  0  0
   -6.6718   -7.9365    0.0000 N   0  0  0  0  0  0  0  0  0  0  0  0
   -6.2083   -6.5099    0.0000 C   0  0  0  0  0  0  0  0  0  0  0  0
   -7.2120   -5.3952    0.0000 C   0  0  0  0  0  0  0  0  0  0  0  0
   -6.7485   -3.9686    0.0000 C   0  0  0  0  0  0  0  0  0  0  0  0
   -6.2850   -2.5420    0.0000 C   0  0  0  0  0  0  0  0  0  0  0  0
   -4.7411   -6.1981    0.0000 C   0  0  0  0  0  0  0  0  0  0  0  0
   -3.7374   -7.3128    0.0000 O   0  0  0  0  0  0  0  0  0  0  0  0
   -4.2776   -4.7715    0.0000 O   0  0  0  0  0  0  0  0  0  0  0  0
  1  2  1  0
  2  3  1  0
  3  4  1  0
  4  5  1  0
  5  6  2  0
  6  7  1  0
  7  8  2  0
  8  9  1  0
  9 10  2  0
  1 11  1  0
 11 12  1  0
 12 13  2  0
 12 14  1  0
 14 15  1  0
 15 16  1  1
 16 17  1  0
 17 18  1  0
 17 19  1  0
 15 20  1  0
 20 21  2  0
 20 22  1  0
 22 23  1  0
 23 24  1  6
 24 25  1  0
 25 26  1  0
 25 27  1  0
 23 28  1  0
 28 29  2  0
 28 30  1  0
 30 31  1  0
 31 32  1  0
 32 33  1  0
 33 34  1  0
 34 35  1  1
 35 36  2  0
 35 37  1  0
 37 38  1  0
 38 39  1  1
 39 40  1  0
 40 41  3  0
 38 42  1  0
 42 43  2  0
 42 44  1  0
 10  5  1  0
 34 30  1  0
M  END
$$$$

     RDKit          2D

 47 48  0  0  0  0  0  0  0  0999 V2000
    1.5000   -5.1962    0.0000 N   0  0  0  0  0  0  0  0  0  0  0  0
    0.7500   -3.8971    0.0000 C   0  0  0  0  0  0  0  0  0  0  0  0
    1.5000   -2.5981    0.0000 C   0  0  0  0  0  0  0  0  0  0  0  0
    0.7500   -1.2990    0.0000 C   0  0  0  0  0  0  0  0  0  0  0  0
    1.5000    0.0000    0.0000 C   0  0  0  0  0  0  0  0  0  0  0  0
    0.7500    1.2990    0.0000 C   0  0  0  0  0  0  0  0  0  0  0  0
   -0.7500    1.2990    0.0000 C   0  0  0  0  0  0  0  0  0  0  0  0
   -1.5000    0.0000    0.0000 C   0  0  0  0  0  0  0  0  0  0  0  0
   -3.0000    0.0000    0.0000 O   0  0  0  0  0  0  0  0  0  0  0  0
   -3.7500   -1.2990    0.0000 C   0  0  0  0  0  0  0  0  0  0  0  0
   -0.7500   -1.2990    0.0000 C   0  0  0  0  0  0  0  0  0  0  0  0
   -1.5000    2.5981    0.0000 O   0  0  0  0  0  0  0  0  0  0  0  0
   -0.7500    3.8971    0.0000 C   0  0  0  0  0  0  0  0  0  0  0  0
    0.7500   -6.4952    0.0000 C   0  0  0  0  0  0  0  0  0  0  0  0
    1.5000   -7.7942    0.0000 C   0  0  0  0  0  0  0  0  0  0  0  0
    3.0000   -7.7942    0.0000 O   0  0  0  0  0  0  0  0  0  0  0  0
    0.7500   -9.0933    0.0000 N   0  0  0  0  0  0  0  0  0  0  0  0
    1.5000  -10.3923    0.0000 C   0  0  0  0  0  0  0  0  0  0  0  0
    0.7500  -11.6913    0.0000 C   0  0  0  0  0  0  0  0  0  0  0  0
    1.5000  -12.9904    0.0000 C   0  0  0  0  0  0  0  0  0  0  0  0
    0.7500  -14.2894    0.0000 C   0  0  0  0  0  0  0  0  0  0  0  0
    3.0000  -12.9904    0.0000 C   0  0  0  0  0  0  0  0  0  0  0  0
    3.0000  -10.3923    0.0000 C   0  0  0  0  0  0  0  0  0  0  0  0
    3.7500   -9.0933    0.0000 O   0  0  0  0  0  0  0  0  0  0  0  0
    3.7500  -11.6913    0.0000 N   0  0  0  0  0  0  0  0  0  0  0  0
    5.2500  -11.6913    0.0000 C   0  0  0  0  0  0  0  0  0  0  0  0
    6.0000  -12.9904    0.0000 C   0  0  0  0  0  0  0  0  0  0  0  0
    5.2500  -14.2894    0.0000 C   0  0  0  0  0  0  0  0  0  0  0  0
    6.0000  -15.5885    0.0000 C   0  0  0  0  0  0  0  0  0  0  0  0
    3.7500  -14.2894    0.0000 C   0  0  0  0  0  0  0  0  0  0  0  0
    6.0000  -10.3923    0.0000 C   0  0  0  0  0  0  0  0  0  0  0  0
    5.2500   -9.0933    0.0000 O   0  0  0  0  0  0  0  0  0  0  0  0
    7.5000  -10.3923    0.0000 N   0  0  0  0  0  0  0  0  0  0  0  0
    8.3817  -11.6058    0.0000 C   0  0  0  0  0  0  0  0  0  0  0  0
    9.8083  -11.1423    0.0000 C   0  0  0  0  0  0  0  0  0  0  0  0
    9.8083   -9.6423    0.0000 C   0  0  0  0  0  0  0  0  0  0  0  0
    8.3817   -9.1788    0.0000 C   0  0  0  0  0  0  0  0  0  0  0  0
    7.9182   -7.7522    0.0000 C   0  0  0  0  0  0  0  0  0  0  0  0
    6.4509   -7.4403    0.0000 O   0  0  0  0  0  0  0  0  0  0  0  0
    8.9218   -6.6375    0.0000 N   0  0  0  0  0  0  0  0  0  0  0  0
    8.4583   -5.2109    0.0000 C   0  0  0  0  0  0  0  0  0  0  0  0
    9.4620   -4.0962    0.0000 C   0  0  0  0  0  0  0  0  0  0  0  0
    8.9985   -2.6696    0.0000 C   0  0  0  0  0  0  0  0  0  0  0  0
    8.5350   -1.2430    0.0000 C   0  0  0  0  0  0  0  0  0  0  0  0
    6.9911   -4.8990    0.0000 C   0  0  0  0  0  0  0  0  0  0  0  0
    5.9874   -6.0137    0.0000 O   0  0  0  0  0  0  0  0  0  0  0  0
    6.5276   -3.4724    0.0000 O   0  0  0  0  0  0  0  0  0  0  0  0
  1  2  1  0
  2  3  1  0
  3  4  1  0
  4  5  2  0
  5  6  1  0
  6  7  2  0
  7  8  1  0
  8  9  1  0
  9 10  1  0
  8 11  2  0
  7 12  1  0
 12 13  1  0
  1 14  1  0
 14 15  1  0
 15 16  2  0
 15 17  1  0
 17 18  1  0
 18 19  1  6
 19 20  1  0
 20 21  1  0
 20 22  1  0
 18 23  1  0
 23 24  2  0
 23 25  1  0
 25 26  1  0
 26 27  1  1
 27 28  1  0
 28 29  1  0
 28 30  1  0
 26 31  1  0
 31 32  2  0
 31 33  1  0
 33 34  1  0
 34 35  1  0
 35 36  1  0
 36 37  1  0
 37 38  1  6
 38 39  2  0
 38 40  1  0
 40 41  1  0
 41 42  1  6
 42 43  1  0
 43 44  3  0
 41 45  1  0
 45 46  2  0
 45 47  1  0
 11  4  1  0
 37 33  1  0
M  END
$$$$

     RDKit          2D

 54 55  0  0  0  0  0  0  0  0999 V2000
    1.2760    5.1962    0.0000 N   0  0  0  0  0  0  0  0  0  0  0  0
    2.7760    5.1962    0.0000 C   0  0  0  0  0  0  0  0  0  0  0  0
    3.5260    6.4952    0.0000 C   0  0  0  0  0  0  0  0  0  0  0  0
    2.7760    7.7942    0.0000 C   0  0  0  0  0  0  0  0  0  0  0  0
    3.5260    9.0933    0.0000 C   0  0  0  0  0  0  0  0  0  0  0  0
    1.2760    7.7942    0.0000 C   0  0  0  0  0  0  0  0  0  0  0  0
    3.5260    3.8971    0.0000 C   0  0  0  0  0  0  0  0  0  0  0  0
    5.0260    3.8971    0.0000 O   0  0  0  0  0  0  0  0  0  0  0  0
    2.7760    2.5981    0.0000 N   0  0  0  0  0  0  0  0  0  0  0  0
    3.5260    1.2990    0.0000 C   0  0  0  0  0  0  0  0  0  0  0  0
    5.0260    1.2990    0.0000 C   0  0  0  0  0  0  0  0  0  0  0  0
    5.7760    0.0000    0.0000 C   0  0  0  0  0  0  0  0  0  0  0  0
    7.2760    0.0000    0.0000 C   0  0  0  0  0  0  0  0  0  0  0  0
    5.0260   -1.2990    0.0000 C   0  0  0  0  0  0  0  0  0  0  0  0
    2.7760    0.0000    0.0000 C   0  0  0  0  0  0  0  0  0  0  0  0
    3.5260   -1.2990    0.0000 O   0  0  0  0  0  0  0  0  0  0  0  0
    1.2760    0.0000    0.0000 N   0  0  0  0  0  0  0  0  0  0  0  0
    0.3943    1.2135    0.0000 C   0  0  0  0  0  0  0  0  0  0  0  0
   -1.0323    0.7500    0.0000 C   0  0  0  0  0  0  0  0  0  0  0  0
   -1.0323   -0.7500    0.0000 C   0  0  0  0  0  0  0  0  0  0  0  0
    0.3943   -1.2135    0.0000 C   0  0  0  0  0  0  0  0  0  0  0  0
    0.8578   -2.6401    0.0000 C   0  0  0  0  0  0  0  0  0  0  0  0
    2.3250   -2.9520    0.0000 O   0  0  0  0  0  0  0  0  0  0  0  0
   -0.1459   -3.7548    0.0000 N   0  0  0  0  0  0  0  0  0  0  0  0
    0.3177   -5.1814    0.0000 C   0  0  0  0  0  0  0  0  0  0  0  0
   -0.6860   -6.2961    0.0000 C   0  0  0  0  0  0  0  0  0  0  0  0
   -0.2225   -7.7227    0.0000 C   0  0  0  0  0  0  0  0  0  0  0  0
   -1.2262   -8.8374    0.0000 C   0  0  0  0  0  0  0  0  0  0  0  0
    1.2447   -8.0346    0.0000 C   0  0  0  0  0  0  0  0  0  0  0  0
    1.7849   -5.4933    0.0000 C   0  0  0  0  0  0  0  0  0  0  0  0
    2.7886   -4.3786    0.0000 O   0  0  0  0  0  0  0  0  0  0  0  0
    2.2484   -6.9199    0.0000 N   0  0  0  0  0  0  0  0  0  0  0  0
    3.7156   -7.2317    0.0000 C   0  0  0  0  0  0  0  0  0  0  0  0
    4.7193   -6.1170    0.0000 C   0  0  0  0  0  0  0  0  0  0  0  0
    6.1865   -6.4289    0.0000 C   0  0  0  0  0  0  0  0  0  0  0  0
    7.1902   -5.3142    0.0000 C   0  0  0  0  0  0  0  0  0  0  0  0
    6.6501   -7.8555    0.0000 C   0  0  0  0  0  0  0  0  0  0  0  0
    4.1791   -8.6583    0.0000 C   0  0  0  0  0  0  0  0  0  0  0  0
    5.6464   -8.9702    0.0000 O   0  0  0  0  0  0  0  0  0  0  0  0
    3.1755   -9.7730    0.0000 N   0  0  0  0  0  0  0  0  0  0  0  0
    1.6837   -9.6162    0.0000 C   0  0  0  0  0  0  0  0  0  0  0  0
    1.0736  -10.9866    0.0000 C   0  0  0  0  0  0  0  0  0  0  0  0
    2.1883  -11.9903    0.0000 C   0  0  0  0  0  0  0  0  0  0  0  0
    3.4873  -11.2403    0.0000 C   0  0  0  0  0  0  0  0  0  0  0  0
    4.8576  -11.8504    0.0000 C   0  0  0  0  0  0  0  0  0  0  0  0
    6.0712  -10.9687    0.0000 O   0  0  0  0  0  0  0  0  0  0  0  0
    5.0144  -13.3421    0.0000 N   0  0  0  0  0  0  0  0  0  0  0  0
    6.3847  -13.9522    0.0000 C   0  0  0  0  0  0  0  0  0  0  0  0
    6.5415  -15.4440    0.0000 C   0  0  0  0  0  0  0  0  0  0  0  0
    7.9119  -16.0541    0.0000 C   0  0  0  0  0  0  0  0  0  0  0  0
    9.2822  -16.6642    0.0000 C   0  0  0  0  0  0  0  0  0  0  0  0
    7.5983  -13.0706    0.0000 C   0  0  0  0  0  0  0  0  0  0  0  0
    7.4415  -11.5788    0.0000 O   0  0  0  0  0  0  0  0  0  0  0  0
    8.9686  -13.6807    0.0000 O   0  0  0  0  0  0  0  0  0  0  0  0
  2  1  1  1
  2  3  1  0
  3  4  1  0
  4  5  1  0
  4  6  1  0
  2  7  1  0
  7  8  2  0
  7  9  1  0
  9 10  1  0
 10 11  1  1
 11 12  1  0
 12 13  1  0
 12 14  1  0
 10 15  1  0
 15 16  2  0
 15 17  1  0
 17 18  1  0
 18 19  1  0
 19 20  1  0
 20 21  1  0
 21 22  1  6
 22 23  2  0
 22 24  1  0
 24 25  1  0
 25 26  1  6
 26 27  1  0
 27 28  1  0
 27 29  1  0
 25 30  1  0
 30 31  2  0
 30 32  1  0
 32 33  1  0
 33 34  1  6
 34 35  1  0
 35 36  1  0
 35 37  1  0
 33 38  1  0
 38 39  2  0
 38 40  1  0
 40 41  1  0
 41 42  1  0
 42 43  1  0
 43 44  1  0
 44 45  1  6
 45 46  2  0
 45 47  1  0
 47 48  1  0
 48 49  1  6
 49 50  1  0
 50 51  3  0
 48 52  1  0
 52 53  2  0
 52 54  1  0
 44 40  1  0
 21 17  1  0
M  END
$$$$

     RDKit          2D

 54 55  0  0  0  0  0  0  0  0999 V2000
    1.2760    5.1962    0.0000 N   0  0  0  0  0  0  0  0  0  0  0  0
    2.7760    5.1962    0.0000 C   0  0  0  0  0  0  0  0  0  0  0  0
    3.5260    6.4952    0.0000 C   0  0  0  0  0  0  0  0  0  0  0  0
    2.7760    7.7942    0.0000 C   0  0  0  0  0  0  0  0  0  0  0  0
    3.5260    9.0933    0.0000 C   0  0  0  0  0  0  0  0  0  0  0  0
    1.2760    7.7942    0.0000 C   0  0  0  0  0  0  0  0  0  0  0  0
    3.5260    3.8971    0.0000 C   0  0  0  0  0  0  0  0  0  0  0  0
    5.0260    3.8971    0.0000 O   0  0  0  0  0  0  0  0  0  0  0  0
    2.7760    2.5981    0.0000 N   0  0  0  0  0  0  0  0  0  0  0  0
    3.5260    1.2990    0.0000 C   0  0  0  0  0  0  0  0  0  0  0  0
    5.0260    1.2990    0.0000 C   0  0  0  0  0  0  0  0  0  0  0  0
    5.7760    0.0000    0.0000 C   0  0  0  0  0  0  0  0  0  0  0  0
    7.2760    0.0000    0.0000 C   0  0  0  0  0  0  0  0  0  0  0  0
    5.0260   -1.2990    0.0000 C   0  0  0  0  0  0  0  0  0  0  0  0
    2.7760    0.0000    0.0000 C   0  0  0  0  0  0  0  0  0  0  0  0
    3.5260   -1.2990    0.0000 O   0  0  0  0  0  0  0  0  0  0  0  0
    1.2760    0.0000    0.0000 N   0  0  0  0  0  0  0  0  0  0  0  0
    0.3943    1.2135    0.0000 C   0  0  0  0  0  0  0  0  0  0  0  0
   -1.0323    0.7500    0.0000 C   0  0  0  0  0  0  0  0  0  0  0  0
   -1.0323   -0.7500    0.0000 C   0  0  0  0  0  0  0  0  0  0  0  0
    0.3943   -1.2135    0.0000 C   0  0  0  0  0  0  0  0  0  0  0  0
    0.8578   -2.6401    0.0000 C   0  0  0  0  0  0  0  0  0  0  0  0
    2.3250   -2.9520    0.0000 O   0  0  0  0  0  0  0  0  0  0  0  0
   -0.1459   -3.7548    0.0000 N   0  0  0  0  0  0  0  0  0  0  0  0
    0.3177   -5.1814    0.0000 C   0  0  0  0  0  0  0  0  0  0  0  0
   -0.6860   -6.2961    0.0000 C   0  0  0  0  0  0  0  0  0  0  0  0
   -0.2225   -7.7227    0.0000 C   0  0  0  0  0  0  0  0  0  0  0  0
   -1.2262   -8.8374    0.0000 C   0  0  0  0  0  0  0  0  0  0  0  0
    1.2447   -8.0346    0.0000 C   0  0  0  0  0  0  0  0  0  0  0  0
    1.7849   -5.4933    0.0000 C   0  0  0  0  0  0  0  0  0  0  0  0
    2.7886   -4.3786    0.0000 O   0  0  0  0  0  0  0  0  0  0  0  0
    2.2484   -6.9199    0.0000 N   0  0  0  0  0  0  0  0  0  0  0  0
    3.7156   -7.2317    0.0000 C   0  0  0  0  0  0  0  0  0  0  0  0
    4.7193   -6.1170    0.0000 C   0  0  0  0  0  0  0  0  0  0  0  0
    6.1865   -6.4289    0.0000 C   0  0  0  0  0  0  0  0  0  0  0  0
    7.1902   -5.3142    0.0000 C   0  0  0  0  0  0  0  0  0  0  0  0
    6.6501   -7.8555    0.0000 C   0  0  0  0  0  0  0  0  0  0  0  0
    4.1791   -8.6583    0.0000 C   0  0  0  0  0  0  0  0  0  0  0  0
    5.6464   -8.9702    0.0000 O   0  0  0  0  0  0  0  0  0  0  0  0
    3.1755   -9.7730    0.0000 N   0  0  0  0  0  0  0  0  0  0  0  0
    1.6837   -9.6162    0.0000 C   0  0  0  0  0  0  0  0  0  0  0  0
    1.0736  -10.9866    0.0000 C   0  0  0  0  0  0  0  0  0  0  0  0
    2.1883  -11.9903    0.0000 C   0  0  0  0  0  0  0  0  0  0  0  0
    3.4873  -11.2403    0.0000 C   0  0  0  0  0  0  0  0  0  0  0  0
    4.8576  -11.8504    0.0000 C   0  0  0  0  0  0  0  0  0  0  0  0
    6.0712  -10.9687    0.0000 O   0  0  0  0  0  0  0  0  0  0  0  0
    5.0144  -13.3421    0.0000 N   0  0  0  0  0  0  0  0  0  0  0  0
    6.3847  -13.9522    0.0000 C   0  0  0  0  0  0  0  0  0  0  0  0
    6.5415  -15.4440    0.0000 C   0  0  0  0  0  0  0  0  0  0  0  0
    7.9119  -16.0541    0.0000 C   0  0  0  0  0  0  0  0  0  0  0  0
    9.2822  -16.6642    0.0000 C   0  0  0  0  0  0  0  0  0  0  0  0
    7.5983  -13.0706    0.0000 C   0  0  0  0  0  0  0  0  0  0  0  0
    7.4415  -11.5788    0.0000 O   0  0  0  0  0  0  0  0  0  0  0  0
    8.9686  -13.6807    0.0000 O   0  0  0  0  0  0  0  0  0  0  0  0
  2  1  1  6
  2  3  1  0
  3  4  1  0
  4  5  1  0
  4  6  1  0
  2  7  1  0
  7  8  2  0
  7  9  1  0
  9 10  1  0
 10 11  1  1
 11 12  1  0
 12 13  1  0
 12 14  1  0
 10 15  1  0
 15 16  2  0
 15 17  1  0
 17 18  1  0
 18 19  1  0
 19 20  1  0
 20 21  1  0
 21 22  1  6
 22 23  2  0
 22 24  1  0
 24 25  1  0
 25 26  1  6
 26 27  1  0
 27 28  1  0
 27 29  1  0
 25 30  1  0
 30 31  2  0
 30 32  1  0
 32 33  1  0
 33 34  1  6
 34 35  1  0
 35 36  1  0
 35 37  1  0
 33 38  1  0
 38 39  2  0
 38 40  1  0
 40 41  1  0
 41 42  1  0
 42 43  1  0
 43 44  1  0
 44 45  1  6
 45 46  2  0
 45 47  1  0
 47 48  1  0
 48 49  1  6
 49 50  1  0
 50 51  3  0
 48 52  1  0
 52 53  2  0
 52 54  1  0
 44 40  1  0
 21 17  1  0
M  END
$$$$

     RDKit          2D

 55 56  0  0  0  0  0  0  0  0999 V2000
    1.2760    5.1962    0.0000 N   0  0  0  0  0  0  0  0  0  0  0  0
    0.5260    6.4952    0.0000 C   0  0  0  0  0  0  0  0  0  0  0  0
    2.7760    5.1962    0.0000 C   0  0  0  0  0  0  0  0  0  0  0  0
    3.5260    6.4952    0.0000 C   0  0  0  0  0  0  0  0  0  0  0  0
    2.7760    7.7942    0.0000 C   0  0  0  0  0  0  0  0  0  0  0  0
    3.5260    9.0933    0.0000 C   0  0  0  0  0  0  0  0  0  0  0  0
    1.2760    7.7942    0.0000 C   0  0  0  0  0  0  0  0  0  0  0  0
    3.5260    3.8971    0.0000 C   0  0  0  0  0  0  0  0  0  0  0  0
    5.0260    3.8971    0.0000 O   0  0  0  0  0  0  0  0  0  0  0  0
    2.7760    2.5981    0.0000 N   0  0  0  0  0  0  0  0  0  0  0  0
    3.5260    1.2990    0.0000 C   0  0  0  0  0  0  0  0  0  0  0  0
    5.0260    1.2990    0.0000 C   0  0  0  0  0  0  0  0  0  0  0  0
    5.7760    0.0000    0.0000 C   0  0  0  0  0  0  0  0  0  0  0  0
    7.2760    0.0000    0.0000 C   0  0  0  0  0  0  0  0  0  0  0  0
    5.0260   -1.2990    0.0000 C   0  0  0  0  0  0  0  0  0  0  0  0
    2.7760    0.0000    0.0000 C   0  0  0  0  0  0  0  0  0  0  0  0
    3.5260   -1.2990    0.0000 O   0  0  0  0  0  0  0  0  0  0  0  0
    1.2760    0.0000    0.0000 N   0  0  0  0  0  0  0  0  0  0  0  0
    0.3943    1.2135    0.0000 C   0  0  0  0  0  0  0  0  0  0  0  0
   -1.0323    0.7500    0.0000 C   0  0  0  0  0  0  0  0  0  0  0  0
   -1.0323   -0.7500    0.0000 C   0  0  0  0  0  0  0  0  0  0  0  0
    0.3943   -1.2135    0.0000 C   0  0  0  0  0  0  0  0  0  0  0  0
    0.8578   -2.6401    0.0000 C   0  0  0  0  0  0  0  0  0  0  0  0
    2.3250   -2.9520    0.0000 O   0  0  0  0  0  0  0  0  0  0  0  0
   -0.1459   -3.7548    0.0000 N   0  0  0  0  0  0  0  0  0  0  0  0
    0.3177   -5.1814    0.0000 C   0  0  0  0  0  0  0  0  0  0  0  0
   -0.6860   -6.2961    0.0000 C   0  0  0  0  0  0  0  0  0  0  0  0
   -0.2225   -7.7227    0.0000 C   0  0  0  0  0  0  0  0  0  0  0  0
   -1.2262   -8.8374    0.0000 C   0  0  0  0  0  0  0  0  0  0  0  0
    1.2447   -8.0346    0.0000 C   0  0  0  0  0  0  0  0  0  0  0  0
    1.7849   -5.4933    0.0000 C   0  0  0  0  0  0  0  0  0  0  0  0
    2.7886   -4.3786    0.0000 O   0  0  0  0  0  0  0  0  0  0  0  0
    2.2484   -6.9199    0.0000 N   0  0  0  0  0  0  0  0  0  0  0  0
    3.7156   -7.2317    0.0000 C   0  0  0  0  0  0  0  0  0  0  0  0
    4.7193   -6.1170    0.0000 C   0  0  0  0  0  0  0  0  0  0  0  0
    6.1865   -6.4289    0.0000 C   0  0  0  0  0  0  0  0  0  0  0  0
    7.1902   -5.3142    0.0000 C   0  0  0  0  0  0  0  0  0  0  0  0
    6.6501   -7.8555    0.0000 C   0  0  0  0  0  0  0  0  0  0  0  0
    4.1791   -8.6583    0.0000 C   0  0  0  0  0  0  0  0  0  0  0  0
    5.6464   -8.9702    0.0000 O   0  0  0  0  0  0  0  0  0  0  0  0
    3.1755   -9.7730    0.0000 N   0  0  0  0  0  0  0  0  0  0  0  0
    1.6837   -9.6162    0.0000 C   0  0  0  0  0  0  0  0  0  0  0  0
    1.0736  -10.9866    0.0000 C   0  0  0  0  0  0  0  0  0  0  0  0
    2.1883  -11.9903    0.0000 C   0  0  0  0  0  0  0  0  0  0  0  0
    3.4873  -11.2403    0.0000 C   0  0  0  0  0  0  0  0  0  0  0  0
    4.8576  -11.8504    0.0000 C   0  0  0  0  0  0  0  0  0  0  0  0
    6.0712  -10.9687    0.0000 O   0  0  0  0  0  0  0  0  0  0  0  0
    5.0144  -13.3421    0.0000 N   0  0  0  0  0  0  0  0  0  0  0  0
    6.3847  -13.9522    0.0000 C   0  0  0  0  0  0  0  0  0  0  0  0
    6.5415  -15.4440    0.0000 C   0  0  0  0  0  0  0  0  0  0  0  0
    7.9119  -16.0541    0.0000 C   0  0  0  0  0  0  0  0  0  0  0  0
    9.2822  -16.6642    0.0000 C   0  0  0  0  0  0  0  0  0  0  0  0
    7.5983  -13.0706    0.0000 C   0  0  0  0  0  0  0  0  0  0  0  0
    7.4415  -11.5788    0.0000 O   0  0  0  0  0  0  0  0  0  0  0  0
    8.9686  -13.6807    0.0000 O   0  0  0  0  0  0  0  0  0  0  0  0
  1  2  1  0
  1  3  1  0
  3  4  1  1
  4  5  1  0
  5  6  1  0
  5  7  1  0
  3  8  1  0
  8  9  2  0
  8 10  1  0
 10 11  1  0
 11 12  1  1
 12 13  1  0
 13 14  1  0
 13 15  1  0
 11 16  1  0
 16 17  2  0
 16 18  1  0
 18 19  1  0
 19 20  1  0
 20 21  1  0
 21 22  1  0
 22 23  1  6
 23 24  2  0
 23 25  1  0
 25 26  1  0
 26 27  1  6
 27 28  1  0
 28 29  1  0
 28 30  1  0
 26 31  1  0
 31 32  2  0
 31 33  1  0
 33 34  1  0
 34 35  1  6
 35 36  1  0
 36 37  1  0
 36 38  1  0
 34 39  1  0
 39 40  2  0
 39 41  1  0
 41 42  1  0
 42 43  1  0
 43 44  1  0
 44 45  1  0
 45 46  1  6
 46 47  2  0
 46 48  1  0
 48 49  1  0
 49 50  1  6
 50 51  1  0
 51 52  3  0
 49 53  1  0
 53 54  2  0
 53 55  1  0
 45 41  1  0
 22 18  1  0
M  END
$$$$

     RDKit          2D

 55 56  0  0  0  0  0  0  0  0999 V2000
    1.2760    5.1962    0.0000 N   0  0  0  0  0  0  0  0  0  0  0  0
    0.5260    6.4952    0.0000 C   0  0  0  0  0  0  0  0  0  0  0  0
    2.7760    5.1962    0.0000 C   0  0  0  0  0  0  0  0  0  0  0  0
    3.5260    6.4952    0.0000 C   0  0  0  0  0  0  0  0  0  0  0  0
    2.7760    7.7942    0.0000 C   0  0  0  0  0  0  0  0  0  0  0  0
    3.5260    9.0933    0.0000 C   0  0  0  0  0  0  0  0  0  0  0  0
    1.2760    7.7942    0.0000 C   0  0  0  0  0  0  0  0  0  0  0  0
    3.5260    3.8971    0.0000 C   0  0  0  0  0  0  0  0  0  0  0  0
    5.0260    3.8971    0.0000 O   0  0  0  0  0  0  0  0  0  0  0  0
    2.7760    2.5981    0.0000 N   0  0  0  0  0  0  0  0  0  0  0  0
    3.5260    1.2990    0.0000 C   0  0  0  0  0  0  0  0  0  0  0  0
    5.0260    1.2990    0.0000 C   0  0  0  0  0  0  0  0  0  0  0  0
    5.7760    0.0000    0.0000 C   0  0  0  0  0  0  0  0  0  0  0  0
    7.2760    0.0000    0.0000 C   0  0  0  0  0  0  0  0  0  0  0  0
    5.0260   -1.2990    0.0000 C   0  0  0  0  0  0  0  0  0  0  0  0
    2.7760    0.0000    0.0000 C   0  0  0  0  0  0  0  0  0  0  0  0
    3.5260   -1.2990    0.0000 O   0  0  0  0  0  0  0  0  0  0  0  0
    1.2760    0.0000    0.0000 N   0  0  0  0  0  0  0  0  0  0  0  0
    0.3943    1.2135    0.0000 C   0  0  0  0  0  0  0  0  0  0  0  0
   -1.0323    0.7500    0.0000 C   0  0  0  0  0  0  0  0  0  0  0  0
   -1.0323   -0.7500    0.0000 C   0  0  0  0  0  0  0  0  0  0  0  0
    0.3943   -1.2135    0.0000 C   0  0  0  0  0  0  0  0  0  0  0  0
    0.8578   -2.6401    0.0000 C   0  0  0  0  0  0  0  0  0  0  0  0
    2.3250   -2.9520    0.0000 O   0  0  0  0  0  0  0  0  0  0  0  0
   -0.1459   -3.7548    0.0000 N   0  0  0  0  0  0  0  0  0  0  0  0
    0.3177   -5.1814    0.0000 C   0  0  0  0  0  0  0  0  0  0  0  0
   -0.6860   -6.2961    0.0000 C   0  0  0  0  0  0  0  0  0  0  0  0
   -0.2225   -7.7227    0.0000 C   0  0  0  0  0  0  0  0  0  0  0  0
   -1.2262   -8.8374    0.0000 C   0  0  0  0  0  0  0  0  0  0  0  0
    1.2447   -8.0346    0.0000 C   0  0  0  0  0  0  0  0  0  0  0  0
    1.7849   -5.4933    0.0000 C   0  0  0  0  0  0  0  0  0  0  0  0
    2.7886   -4.3786    0.0000 O   0  0  0  0  0  0  0  0  0  0  0  0
    2.2484   -6.9199    0.0000 N   0  0  0  0  0  0  0  0  0  0  0  0
    3.7156   -7.2317    0.0000 C   0  0  0  0  0  0  0  0  0  0  0  0
    4.7193   -6.1170    0.0000 C   0  0  0  0  0  0  0  0  0  0  0  0
    6.1865   -6.4289    0.0000 C   0  0  0  0  0  0  0  0  0  0  0  0
    7.1902   -5.3142    0.0000 C   0  0  0  0  0  0  0  0  0  0  0  0
    6.6501   -7.8555    0.0000 C   0  0  0  0  0  0  0  0  0  0  0  0
    4.1791   -8.6583    0.0000 C   0  0  0  0  0  0  0  0  0  0  0  0
    5.6464   -8.9702    0.0000 O   0  0  0  0  0  0  0  0  0  0  0  0
    3.1755   -9.7730    0.0000 N   0  0  0  0  0  0  0  0  0  0  0  0
    1.6837   -9.6162    0.0000 C   0  0  0  0  0  0  0  0  0  0  0  0
    1.0736  -10.9866    0.0000 C   0  0  0  0  0  0  0  0  0  0  0  0
    2.1883  -11.9903    0.0000 C   0  0  0  0  0  0  0  0  0  0  0  0
    3.4873  -11.2403    0.0000 C   0  0  0  0  0  0  0  0  0  0  0  0
    4.8576  -11.8504    0.0000 C   0  0  0  0  0  0  0  0  0  0  0  0
    6.0712  -10.9687    0.0000 O   0  0  0  0  0  0  0  0  0  0  0  0
    5.0144  -13.3421    0.0000 N   0  0  0  0  0  0  0  0  0  0  0  0
    6.3847  -13.9522    0.0000 C   0  0  0  0  0  0  0  0  0  0  0  0
    6.5415  -15.4440    0.0000 C   0  0  0  0  0  0  0  0  0  0  0  0
    7.9119  -16.0541    0.0000 C   0  0  0  0  0  0  0  0  0  0  0  0
    9.2822  -16.6642    0.0000 C   0  0  0  0  0  0  0  0  0  0  0  0
    7.5983  -13.0706    0.0000 C   0  0  0  0  0  0  0  0  0  0  0  0
    7.4415  -11.5788    0.0000 O   0  0  0  0  0  0  0  0  0  0  0  0
    8.9686  -13.6807    0.0000 O   0  0  0  0  0  0  0  0  0  0  0  0
  1  2  1  0
  1  3  1  0
  3  4  1  6
  4  5  1  0
  5  6  1  0
  5  7  1  0
  3  8  1  0
  8  9  2  0
  8 10  1  0
 10 11  1  0
 11 12  1  1
 12 13  1  0
 13 14  1  0
 13 15  1  0
 11 16  1  0
 16 17  2  0
 16 18  1  0
 18 19  1  0
 19 20  1  0
 20 21  1  0
 21 22  1  0
 22 23  1  6
 23 24  2  0
 23 25  1  0
 25 26  1  0
 26 27  1  6
 27 28  1  0
 28 29  1  0
 28 30  1  0
 26 31  1  0
 31 32  2  0
 31 33  1  0
 33 34  1  0
 34 35  1  6
 35 36  1  0
 36 37  1  0
 36 38  1  0
 34 39  1  0
 39 40  2  0
 39 41  1  0
 41 42  1  0
 42 43  1  0
 43 44  1  0
 44 45  1  0
 45 46  1  6
 46 47  2  0
 46 48  1  0
 48 49  1  0
 49 50  1  6
 50 51  1  0
 51 52  3  0
 49 53  1  0
 53 54  2  0
 53 55  1  0
 45 41  1  0
 22 18  1  0
M  END
$$$$

     RDKit          2D

 54 55  0  0  0  0  0  0  0  0999 V2000
    1.2760    5.1962    0.0000 N   0  0  0  0  0  0  0  0  0  0  0  0
    2.7760    5.1962    0.0000 C   0  0  0  0  0  0  0  0  0  0  0  0
    3.5260    6.4952    0.0000 C   0  0  0  0  0  0  0  0  0  0  0  0
    2.7760    7.7942    0.0000 C   0  0  0  0  0  0  0  0  0  0  0  0
    3.5260    9.0933    0.0000 C   0  0  0  0  0  0  0  0  0  0  0  0
    1.2760    7.7942    0.0000 C   0  0  0  0  0  0  0  0  0  0  0  0
    3.5260    3.8971    0.0000 C   0  0  0  0  0  0  0  0  0  0  0  0
    5.0260    3.8971    0.0000 O   0  0  0  0  0  0  0  0  0  0  0  0
    2.7760    2.5981    0.0000 N   0  0  0  0  0  0  0  0  0  0  0  0
    3.5260    1.2990    0.0000 C   0  0  0  0  0  0  0  0  0  0  0  0
    5.0260    1.2990    0.0000 C   0  0  0  0  0  0  0  0  0  0  0  0
    5.7760    0.0000    0.0000 C   0  0  0  0  0  0  0  0  0  0  0  0
    7.2760    0.0000    0.0000 C   0  0  0  0  0  0  0  0  0  0  0  0
    5.0260   -1.2990    0.0000 C   0  0  0  0  0  0  0  0  0  0  0  0
    2.7760    0.0000    0.0000 C   0  0  0  0  0  0  0  0  0  0  0  0
    3.5260   -1.2990    0.0000 O   0  0  0  0  0  0  0  0  0  0  0  0
    1.2760    0.0000    0.0000 N   0  0  0  0  0  0  0  0  0  0  0  0
    0.3943    1.2135    0.0000 C   0  0  0  0  0  0  0  0  0  0  0  0
   -1.0323    0.7500    0.0000 C   0  0  0  0  0  0  0  0  0  0  0  0
   -1.0323   -0.7500    0.0000 C   0  0  0  0  0  0  0  0  0  0  0  0
    0.3943   -1.2135    0.0000 C   0  0  0  0  0  0  0  0  0  0  0  0
    0.8578   -2.6401    0.0000 C   0  0  0  0  0  0  0  0  0  0  0  0
    2.3250   -2.9520    0.0000 O   0  0  0  0  0  0  0  0  0  0  0  0
   -0.1459   -3.7548    0.0000 N   0  0  0  0  0  0  0  0  0  0  0  0
    0.3177   -5.1814    0.0000 C   0  0  0  0  0  0  0  0  0  0  0  0
   -0.6860   -6.2961    0.0000 C   0  0  0  0  0  0  0  0  0  0  0  0
   -0.2225   -7.7227    0.0000 C   0  0  0  0  0  0  0  0  0  0  0  0
   -1.2262   -8.8374    0.0000 C   0  0  0  0  0  0  0  0  0  0  0  0
    1.2447   -8.0346    0.0000 C   0  0  0  0  0  0  0  0  0  0  0  0
    1.7849   -5.4933    0.0000 C   0  0  0  0  0  0  0  0  0  0  0  0
    2.7886   -4.3786    0.0000 O   0  0  0  0  0  0  0  0  0  0  0  0
    2.2484   -6.9199    0.0000 N   0  0  0  0  0  0  0  0  0  0  0  0
    3.7156   -7.2317    0.0000 C   0  0  0  0  0  0  0  0  0  0  0  0
    4.7193   -6.1170    0.0000 C   0  0  0  0  0  0  0  0  0  0  0  0
    6.1865   -6.4289    0.0000 C   0  0  0  0  0  0  0  0  0  0  0  0
    7.1902   -5.3142    0.0000 C   0  0  0  0  0  0  0  0  0  0  0  0
    6.6501   -7.8555    0.0000 C   0  0  0  0  0  0  0  0  0  0  0  0
    4.1791   -8.6583    0.0000 C   0  0  0  0  0  0  0  0  0  0  0  0
    5.6464   -8.9702    0.0000 O   0  0  0  0  0  0  0  0  0  0  0  0
    3.1755   -9.7730    0.0000 N   0  0  0  0  0  0  0  0  0  0  0  0
    1.6837   -9.6162    0.0000 C   0  0  0  0  0  0  0  0  0  0  0  0
    1.0736  -10.9866    0.0000 C   0  0  0  0  0  0  0  0  0  0  0  0
    2.1883  -11.9903    0.0000 C   0  0  0  0  0  0  0  0  0  0  0  0
    3.4873  -11.2403    0.0000 C   0  0  0  0  0  0  0  0  0  0  0  0
    4.8576  -11.8504    0.0000 C   0  0  0  0  0  0  0  0  0  0  0  0
    6.0712  -10.9687    0.0000 O   0  0  0  0  0  0  0  0  0  0  0  0
    5.0144  -13.3421    0.0000 N   0  0  0  0  0  0  0  0  0  0  0  0
    6.3847  -13.9522    0.0000 C   0  0  0  0  0  0  0  0  0  0  0  0
    6.5415  -15.4440    0.0000 C   0  0  0  0  0  0  0  0  0  0  0  0
    7.9119  -16.0541    0.0000 C   0  0  0  0  0  0  0  0  0  0  0  0
    9.2822  -16.6642    0.0000 C   0  0  0  0  0  0  0  0  0  0  0  0
    7.5983  -13.0706    0.0000 C   0  0  0  0  0  0  0  0  0  0  0  0
    7.4415  -11.5788    0.0000 O   0  0  0  0  0  0  0  0  0  0  0  0
    8.9686  -13.6807    0.0000 O   0  0  0  0  0  0  0  0  0  0  0  0
  2  1  1  1
  2  3  1  0
  3  4  1  0
  4  5  1  0
  4  6  1  0
  2  7  1  0
  7  8  2  0
  7  9  1  0
  9 10  1  0
 10 11  1  6
 11 12  1  0
 12 13  1  0
 12 14  1  0
 10 15  1  0
 15 16  2  0
 15 17  1  0
 17 18  1  0
 18 19  1  0
 19 20  1  0
 20 21  1  0
 21 22  1  6
 22 23  2  0
 22 24  1  0
 24 25  1  0
 25 26  1  6
 26 27  1  0
 27 28  1  0
 27 29  1  0
 25 30  1  0
 30 31  2  0
 30 32  1  0
 32 33  1  0
 33 34  1  6
 34 35  1  0
 35 36  1  0
 35 37  1  0
 33 38  1  0
 38 39  2  0
 38 40  1  0
 40 41  1  0
 41 42  1  0
 42 43  1  0
 43 44  1  0
 44 45  1  6
 45 46  2  0
 45 47  1  0
 47 48  1  0
 48 49  1  6
 49 50  1  0
 50 51  3  0
 48 52  1  0
 52 53  2  0
 52 54  1  0
 21 17  1  0
 44 40  1  0
M  END
$$$$

     RDKit          2D

 54 55  0  0  0  0  0  0  0  0999 V2000
    1.2760    5.1962    0.0000 N   0  0  0  0  0  0  0  0  0  0  0  0
    2.7760    5.1962    0.0000 C   0  0  0  0  0  0  0  0  0  0  0  0
    3.5260    6.4952    0.0000 C   0  0  0  0  0  0  0  0  0  0  0  0
    2.7760    7.7942    0.0000 C   0  0  0  0  0  0  0  0  0  0  0  0
    3.5260    9.0933    0.0000 C   0  0  0  0  0  0  0  0  0  0  0  0
    1.2760    7.7942    0.0000 C   0  0  0  0  0  0  0  0  0  0  0  0
    3.5260    3.8971    0.0000 C   0  0  0  0  0  0  0  0  0  0  0  0
    5.0260    3.8971    0.0000 O   0  0  0  0  0  0  0  0  0  0  0  0
    2.7760    2.5981    0.0000 N   0  0  0  0  0  0  0  0  0  0  0  0
    3.5260    1.2990    0.0000 C   0  0  0  0  0  0  0  0  0  0  0  0
    5.0260    1.2990    0.0000 C   0  0  0  0  0  0  0  0  0  0  0  0
    5.7760    0.0000    0.0000 C   0  0  0  0  0  0  0  0  0  0  0  0
    7.2760    0.0000    0.0000 C   0  0  0  0  0  0  0  0  0  0  0  0
    5.0260   -1.2990    0.0000 C   0  0  0  0  0  0  0  0  0  0  0  0
    2.7760    0.0000    0.0000 C   0  0  0  0  0  0  0  0  0  0  0  0
    3.5260   -1.2990    0.0000 O   0  0  0  0  0  0  0  0  0  0  0  0
    1.2760    0.0000    0.0000 N   0  0  0  0  0  0  0  0  0  0  0  0
    0.3943    1.2135    0.0000 C   0  0  0  0  0  0  0  0  0  0  0  0
   -1.0323    0.7500    0.0000 C   0  0  0  0  0  0  0  0  0  0  0  0
   -1.0323   -0.7500    0.0000 C   0  0  0  0  0  0  0  0  0  0  0  0
    0.3943   -1.2135    0.0000 C   0  0  0  0  0  0  0  0  0  0  0  0
    0.8578   -2.6401    0.0000 C   0  0  0  0  0  0  0  0  0  0  0  0
    2.3250   -2.9520    0.0000 O   0  0  0  0  0  0  0  0  0  0  0  0
   -0.1459   -3.7548    0.0000 N   0  0  0  0  0  0  0  0  0  0  0  0
    0.3177   -5.1814    0.0000 C   0  0  0  0  0  0  0  0  0  0  0  0
   -0.6860   -6.2961    0.0000 C   0  0  0  0  0  0  0  0  0  0  0  0
   -0.2225   -7.7227    0.0000 C   0  0  0  0  0  0  0  0  0  0  0  0
   -1.2262   -8.8374    0.0000 C   0  0  0  0  0  0  0  0  0  0  0  0
    1.2447   -8.0346    0.0000 C   0  0  0  0  0  0  0  0  0  0  0  0
    1.7849   -5.4933    0.0000 C   0  0  0  0  0  0  0  0  0  0  0  0
    2.7886   -4.3786    0.0000 O   0  0  0  0  0  0  0  0  0  0  0  0
    2.2484   -6.9199    0.0000 N   0  0  0  0  0  0  0  0  0  0  0  0
    3.7156   -7.2317    0.0000 C   0  0  0  0  0  0  0  0  0  0  0  0
    4.7193   -6.1170    0.0000 C   0  0  0  0  0  0  0  0  0  0  0  0
    6.1865   -6.4289    0.0000 C   0  0  0  0  0  0  0  0  0  0  0  0
    7.1902   -5.3142    0.0000 C   0  0  0  0  0  0  0  0  0  0  0  0
    6.6501   -7.8555    0.0000 C   0  0  0  0  0  0  0  0  0  0  0  0
    4.1791   -8.6583    0.0000 C   0  0  0  0  0  0  0  0  0  0  0  0
    5.6464   -8.9702    0.0000 O   0  0  0  0  0  0  0  0  0  0  0  0
    3.1755   -9.7730    0.0000 N   0  0  0  0  0  0  0  0  0  0  0  0
    1.6837   -9.6162    0.0000 C   0  0  0  0  0  0  0  0  0  0  0  0
    1.0736  -10.9866    0.0000 C   0  0  0  0  0  0  0  0  0  0  0  0
    2.1883  -11.9903    0.0000 C   0  0  0  0  0  0  0  0  0  0  0  0
    3.4873  -11.2403    0.0000 C   0  0  0  0  0  0  0  0  0  0  0  0
    4.8576  -11.8504    0.0000 C   0  0  0  0  0  0  0  0  0  0  0  0
    6.0712  -10.9687    0.0000 O   0  0  0  0  0  0  0  0  0  0  0  0
    5.0144  -13.3421    0.0000 N   0  0  0  0  0  0  0  0  0  0  0  0
    6.3847  -13.9522    0.0000 C   0  0  0  0  0  0  0  0  0  0  0  0
    6.5415  -15.4440    0.0000 C   0  0  0  0  0  0  0  0  0  0  0  0
    7.9119  -16.0541    0.0000 C   0  0  0  0  0  0  0  0  0  0  0  0
    9.2822  -16.6642    0.0000 C   0  0  0  0  0  0  0  0  0  0  0  0
    7.5983  -13.0706    0.0000 C   0  0  0  0  0  0  0  0  0  0  0  0
    7.4415  -11.5788    0.0000 O   0  0  0  0  0  0  0  0  0  0  0  0
    8.9686  -13.6807    0.0000 O   0  0  0  0  0  0  0  0  0  0  0  0
  2  1  1  6
  2  3  1  0
  3  4  1  0
  4  5  1  0
  4  6  1  0
  2  7  1  0
  7  8  2  0
  7  9  1  0
  9 10  1  0
 10 11  1  6
 11 12  1  0
 12 13  1  0
 12 14  1  0
 10 15  1  0
 15 16  2  0
 15 17  1  0
 17 18  1  0
 18 19  1  0
 19 20  1  0
 20 21  1  0
 21 22  1  6
 22 23  2  0
 22 24  1  0
 24 25  1  0
 25 26  1  6
 26 27  1  0
 27 28  1  0
 27 29  1  0
 25 30  1  0
 30 31  2  0
 30 32  1  0
 32 33  1  0
 33 34  1  6
 34 35  1  0
 35 36  1  0
 35 37  1  0
 33 38  1  0
 38 39  2  0
 38 40  1  0
 40 41  1  0
 41 42  1  0
 42 43  1  0
 43 44  1  0
 44 45  1  6
 45 46  2  0
 45 47  1  0
 47 48  1  0
 48 49  1  6
 49 50  1  0
 50 51  3  0
 48 52  1  0
 52 53  2  0
 52 54  1  0
 21 17  1  0
 44 40  1  0
M  END
$$$$

     RDKit          2D

 55 56  0  0  0  0  0  0  0  0999 V2000
    1.2760    5.1962    0.0000 N   0  0  0  0  0  0  0  0  0  0  0  0
    0.5260    6.4952    0.0000 C   0  0  0  0  0  0  0  0  0  0  0  0
    2.7760    5.1962    0.0000 C   0  0  0  0  0  0  0  0  0  0  0  0
    3.5260    6.4952    0.0000 C   0  0  0  0  0  0  0  0  0  0  0  0
    2.7760    7.7942    0.0000 C   0  0  0  0  0  0  0  0  0  0  0  0
    3.5260    9.0933    0.0000 C   0  0  0  0  0  0  0  0  0  0  0  0
    1.2760    7.7942    0.0000 C   0  0  0  0  0  0  0  0  0  0  0  0
    3.5260    3.8971    0.0000 C   0  0  0  0  0  0  0  0  0  0  0  0
    5.0260    3.8971    0.0000 O   0  0  0  0  0  0  0  0  0  0  0  0
    2.7760    2.5981    0.0000 N   0  0  0  0  0  0  0  0  0  0  0  0
    3.5260    1.2990    0.0000 C   0  0  0  0  0  0  0  0  0  0  0  0
    5.0260    1.2990    0.0000 C   0  0  0  0  0  0  0  0  0  0  0  0
    5.7760    0.0000    0.0000 C   0  0  0  0  0  0  0  0  0  0  0  0
    7.2760    0.0000    0.0000 C   0  0  0  0  0  0  0  0  0  0  0  0
    5.0260   -1.2990    0.0000 C   0  0  0  0  0  0  0  0  0  0  0  0
    2.7760    0.0000    0.0000 C   0  0  0  0  0  0  0  0  0  0  0  0
    3.5260   -1.2990    0.0000 O   0  0  0  0  0  0  0  0  0  0  0  0
    1.2760    0.0000    0.0000 N   0  0  0  0  0  0  0  0  0  0  0  0
    0.3943    1.2135    0.0000 C   0  0  0  0  0  0  0  0  0  0  0  0
   -1.0323    0.7500    0.0000 C   0  0  0  0  0  0  0  0  0  0  0  0
   -1.0323   -0.7500    0.0000 C   0  0  0  0  0  0  0  0  0  0  0  0
    0.3943   -1.2135    0.0000 C   0  0  0  0  0  0  0  0  0  0  0  0
    0.8578   -2.6401    0.0000 C   0  0  0  0  0  0  0  0  0  0  0  0
    2.3250   -2.9520    0.0000 O   0  0  0  0  0  0  0  0  0  0  0  0
   -0.1459   -3.7548    0.0000 N   0  0  0  0  0  0  0  0  0  0  0  0
    0.3177   -5.1814    0.0000 C   0  0  0  0  0  0  0  0  0  0  0  0
   -0.6860   -6.2961    0.0000 C   0  0  0  0  0  0  0  0  0  0  0  0
   -0.2225   -7.7227    0.0000 C   0  0  0  0  0  0  0  0  0  0  0  0
   -1.2262   -8.8374    0.0000 C   0  0  0  0  0  0  0  0  0  0  0  0
    1.2447   -8.0346    0.0000 C   0  0  0  0  0  0  0  0  0  0  0  0
    1.7849   -5.4933    0.0000 C   0  0  0  0  0  0  0  0  0  0  0  0
    2.7886   -4.3786    0.0000 O   0  0  0  0  0  0  0  0  0  0  0  0
    2.2484   -6.9199    0.0000 N   0  0  0  0  0  0  0  0  0  0  0  0
    3.7156   -7.2317    0.0000 C   0  0  0  0  0  0  0  0  0  0  0  0
    4.7193   -6.1170    0.0000 C   0  0  0  0  0  0  0  0  0  0  0  0
    6.1865   -6.4289    0.0000 C   0  0  0  0  0  0  0  0  0  0  0  0
    7.1902   -5.3142    0.0000 C   0  0  0  0  0  0  0  0  0  0  0  0
    6.6501   -7.8555    0.0000 C   0  0  0  0  0  0  0  0  0  0  0  0
    4.1791   -8.6583    0.0000 C   0  0  0  0  0  0  0  0  0  0  0  0
    5.6464   -8.9702    0.0000 O   0  0  0  0  0  0  0  0  0  0  0  0
    3.1755   -9.7730    0.0000 N   0  0  0  0  0  0  0  0  0  0  0  0
    1.6837   -9.6162    0.0000 C   0  0  0  0  0  0  0  0  0  0  0  0
    1.0736  -10.9866    0.0000 C   0  0  0  0  0  0  0  0  0  0  0  0
    2.1883  -11.9903    0.0000 C   0  0  0  0  0  0  0  0  0  0  0  0
    3.4873  -11.2403    0.0000 C   0  0  0  0  0  0  0  0  0  0  0  0
    4.8576  -11.8504    0.0000 C   0  0  0  0  0  0  0  0  0  0  0  0
    6.0712  -10.9687    0.0000 O   0  0  0  0  0  0  0  0  0  0  0  0
    5.0144  -13.3421    0.0000 N   0  0  0  0  0  0  0  0  0  0  0  0
    6.3847  -13.9522    0.0000 C   0  0  0  0  0  0  0  0  0  0  0  0
    6.5415  -15.4440    0.0000 C   0  0  0  0  0  0  0  0  0  0  0  0
    7.9119  -16.0541    0.0000 C   0  0  0  0  0  0  0  0  0  0  0  0
    9.2822  -16.6642    0.0000 C   0  0  0  0  0  0  0  0  0  0  0  0
    7.5983  -13.0706    0.0000 C   0  0  0  0  0  0  0  0  0  0  0  0
    7.4415  -11.5788    0.0000 O   0  0  0  0  0  0  0  0  0  0  0  0
    8.9686  -13.6807    0.0000 O   0  0  0  0  0  0  0  0  0  0  0  0
  1  2  1  0
  1  3  1  0
  3  4  1  1
  4  5  1  0
  5  6  1  0
  5  7  1  0
  3  8  1  0
  8  9  2  0
  8 10  1  0
 10 11  1  0
 11 12  1  6
 12 13  1  0
 13 14  1  0
 13 15  1  0
 11 16  1  0
 16 17  2  0
 16 18  1  0
 18 19  1  0
 19 20  1  0
 20 21  1  0
 21 22  1  0
 22 23  1  6
 23 24  2  0
 23 25  1  0
 25 26  1  0
 26 27  1  6
 27 28  1  0
 28 29  1  0
 28 30  1  0
 26 31  1  0
 31 32  2  0
 31 33  1  0
 33 34  1  0
 34 35  1  6
 35 36  1  0
 36 37  1  0
 36 38  1  0
 34 39  1  0
 39 40  2  0
 39 41  1  0
 41 42  1  0
 42 43  1  0
 43 44  1  0
 44 45  1  0
 45 46  1  6
 46 47  2  0
 46 48  1  0
 48 49  1  0
 49 50  1  6
 50 51  1  0
 51 52  3  0
 49 53  1  0
 53 54  2  0
 53 55  1  0
 22 18  1  0
 45 41  1  0
M  END
$$$$

     RDKit          2D

 55 56  0  0  0  0  0  0  0  0999 V2000
    1.2760    5.1962    0.0000 N   0  0  0  0  0  0  0  0  0  0  0  0
    0.5260    6.4952    0.0000 C   0  0  0  0  0  0  0  0  0  0  0  0
    2.7760    5.1962    0.0000 C   0  0  0  0  0  0  0  0  0  0  0  0
    3.5260    6.4952    0.0000 C   0  0  0  0  0  0  0  0  0  0  0  0
    2.7760    7.7942    0.0000 C   0  0  0  0  0  0  0  0  0  0  0  0
    3.5260    9.0933    0.0000 C   0  0  0  0  0  0  0  0  0  0  0  0
    1.2760    7.7942    0.0000 C   0  0  0  0  0  0  0  0  0  0  0  0
    3.5260    3.8971    0.0000 C   0  0  0  0  0  0  0  0  0  0  0  0
    5.0260    3.8971    0.0000 O   0  0  0  0  0  0  0  0  0  0  0  0
    2.7760    2.5981    0.0000 N   0  0  0  0  0  0  0  0  0  0  0  0
    3.5260    1.2990    0.0000 C   0  0  0  0  0  0  0  0  0  0  0  0
    5.0260    1.2990    0.0000 C   0  0  0  0  0  0  0  0  0  0  0  0
    5.7760    0.0000    0.0000 C   0  0  0  0  0  0  0  0  0  0  0  0
    7.2760    0.0000    0.0000 C   0  0  0  0  0  0  0  0  0  0  0  0
    5.0260   -1.2990    0.0000 C   0  0  0  0  0  0  0  0  0  0  0  0
    2.7760    0.0000    0.0000 C   0  0  0  0  0  0  0  0  0  0  0  0
    3.5260   -1.2990    0.0000 O   0  0  0  0  0  0  0  0  0  0  0  0
    1.2760    0.0000    0.0000 N   0  0  0  0  0  0  0  0  0  0  0  0
    0.3943    1.2135    0.0000 C   0  0  0  0  0  0  0  0  0  0  0  0
   -1.0323    0.7500    0.0000 C   0  0  0  0  0  0  0  0  0  0  0  0
   -1.0323   -0.7500    0.0000 C   0  0  0  0  0  0  0  0  0  0  0  0
    0.3943   -1.2135    0.0000 C   0  0  0  0  0  0  0  0  0  0  0  0
    0.8578   -2.6401    0.0000 C   0  0  0  0  0  0  0  0  0  0  0  0
    2.3250   -2.9520    0.0000 O   0  0  0  0  0  0  0  0  0  0  0  0
   -0.1459   -3.7548    0.0000 N   0  0  0  0  0  0  0  0  0  0  0  0
    0.3177   -5.1814    0.0000 C   0  0  0  0  0  0  0  0  0  0  0  0
   -0.6860   -6.2961    0.0000 C   0  0  0  0  0  0  0  0  0  0  0  0
   -0.2225   -7.7227    0.0000 C   0  0  0  0  0  0  0  0  0  0  0  0
   -1.2262   -8.8374    0.0000 C   0  0  0  0  0  0  0  0  0  0  0  0
    1.2447   -8.0346    0.0000 C   0  0  0  0  0  0  0  0  0  0  0  0
    1.7849   -5.4933    0.0000 C   0  0  0  0  0  0  0  0  0  0  0  0
    2.7886   -4.3786    0.0000 O   0  0  0  0  0  0  0  0  0  0  0  0
    2.2484   -6.9199    0.0000 N   0  0  0  0  0  0  0  0  0  0  0  0
    3.7156   -7.2317    0.0000 C   0  0  0  0  0  0  0  0  0  0  0  0
    4.7193   -6.1170    0.0000 C   0  0  0  0  0  0  0  0  0  0  0  0
    6.1865   -6.4289    0.0000 C   0  0  0  0  0  0  0  0  0  0  0  0
    7.1902   -5.3142    0.0000 C   0  0  0  0  0  0  0  0  0  0  0  0
    6.6501   -7.8555    0.0000 C   0  0  0  0  0  0  0  0  0  0  0  0
    4.1791   -8.6583    0.0000 C   0  0  0  0  0  0  0  0  0  0  0  0
    5.6464   -8.9702    0.0000 O   0  0  0  0  0  0  0  0  0  0  0  0
    3.1755   -9.7730    0.0000 N   0  0  0  0  0  0  0  0  0  0  0  0
    1.6837   -9.6162    0.0000 C   0  0  0  0  0  0  0  0  0  0  0  0
    1.0736  -10.9866    0.0000 C   0  0  0  0  0  0  0  0  0  0  0  0
    2.1883  -11.9903    0.0000 C   0  0  0  0  0  0  0  0  0  0  0  0
    3.4873  -11.2403    0.0000 C   0  0  0  0  0  0  0  0  0  0  0  0
    4.8576  -11.8504    0.0000 C   0  0  0  0  0  0  0  0  0  0  0  0
    6.0712  -10.9687    0.0000 O   0  0  0  0  0  0  0  0  0  0  0  0
    5.0144  -13.3421    0.0000 N   0  0  0  0  0  0  0  0  0  0  0  0
    6.3847  -13.9522    0.0000 C   0  0  0  0  0  0  0  0  0  0  0  0
    6.5415  -15.4440    0.0000 C   0  0  0  0  0  0  0  0  0  0  0  0
    7.9119  -16.0541    0.0000 C   0  0  0  0  0  0  0  0  0  0  0  0
    9.2822  -16.6642    0.0000 C   0  0  0  0  0  0  0  0  0  0  0  0
    7.5983  -13.0706    0.0000 C   0  0  0  0  0  0  0  0  0  0  0  0
    7.4415  -11.5788    0.0000 O   0  0  0  0  0  0  0  0  0  0  0  0
    8.9686  -13.6807    0.0000 O   0  0  0  0  0  0  0  0  0  0  0  0
  1  2  1  0
  1  3  1  0
  3  4  1  6
  4  5  1  0
  5  6  1  0
  5  7  1  0
  3  8  1  0
  8  9  2  0
  8 10  1  0
 10 11  1  0
 11 12  1  6
 12 13  1  0
 13 14  1  0
 13 15  1  0
 11 16  1  0
 16 17  2  0
 16 18  1  0
 18 19  1  0
 19 20  1  0
 20 21  1  0
 21 22  1  0
 22 23  1  6
 23 24  2  0
 23 25  1  0
 25 26  1  0
 26 27  1  6
 27 28  1  0
 28 29  1  0
 28 30  1  0
 26 31  1  0
 31 32  2  0
 31 33  1  0
 33 34  1  0
 34 35  1  6
 35 36  1  0
 36 37  1  0
 36 38  1  0
 34 39  1  0
 39 40  2  0
 39 41  1  0
 41 42  1  0
 42 43  1  0
 43 44  1  0
 44 45  1  0
 45 46  1  6
 46 47  2  0
 46 48  1  0
 48 49  1  0
 49 50  1  6
 50 51  1  0
 51 52  3  0
 49 53  1  0
 53 54  2  0
 53 55  1  0
 22 18  1  0
 45 41  1  0
M  END
$$$$

     RDKit          2D

 55 56  0  0  0  0  0  0  0  0999 V2000
    8.0260    1.2990    0.0000 N   0  0  0  0  0  0  0  0  0  0  0  0
    7.2760    0.0000    0.0000 C   0  0  0  0  0  0  0  0  0  0  0  0
    8.0260   -1.2990    0.0000 C   0  0  0  0  0  0  0  0  0  0  0  0
    9.5260   -1.2990    0.0000 C   0  0  0  0  0  0  0  0  0  0  0  0
   10.2760   -2.5981    0.0000 C   0  0  0  0  0  0  0  0  0  0  0  0
   10.2760    0.0000    0.0000 C   0  0  0  0  0  0  0  0  0  0  0  0
    5.7760    0.0000    0.0000 C   0  0  0  0  0  0  0  0  0  0  0  0
    5.0260   -1.2990    0.0000 O   0  0  0  0  0  0  0  0  0  0  0  0
    5.0260    1.2990    0.0000 N   0  0  0  0  0  0  0  0  0  0  0  0
    5.7760    2.5981    0.0000 C   0  0  0  0  0  0  0  0  0  0  0  0
    3.5260    1.2990    0.0000 C   0  0  0  0  0  0  0  0  0  0  0  0
    2.7760    2.5981    0.0000 C   0  0  0  0  0  0  0  0  0  0  0  0
    3.5260    3.8971    0.0000 C   0  0  0  0  0  0  0  0  0  0  0  0
    2.7760    5.1962    0.0000 C   0  0  0  0  0  0  0  0  0  0  0  0
    5.0260    3.8971    0.0000 C   0  0  0  0  0  0  0  0  0  0  0  0
    2.7760    0.0000    0.0000 C   0  0  0  0  0  0  0  0  0  0  0  0
    3.5260   -1.2990    0.0000 O   0  0  0  0  0  0  0  0  0  0  0  0
    1.2760    0.0000    0.0000 N   0  0  0  0  0  0  0  0  0  0  0  0
    0.3943    1.2135    0.0000 C   0  0  0  0  0  0  0  0  0  0  0  0
   -1.0323    0.7500    0.0000 C   0  0  0  0  0  0  0  0  0  0  0  0
   -1.0323   -0.7500    0.0000 C   0  0  0  0  0  0  0  0  0  0  0  0
    0.3943   -1.2135    0.0000 C   0  0  0  0  0  0  0  0  0  0  0  0
    0.8578   -2.6401    0.0000 C   0  0  0  0  0  0  0  0  0  0  0  0
    2.3250   -2.9520    0.0000 O   0  0  0  0  0  0  0  0  0  0  0  0
   -0.1459   -3.7548    0.0000 N   0  0  0  0  0  0  0  0  0  0  0  0
    0.3177   -5.1814    0.0000 C   0  0  0  0  0  0  0  0  0  0  0  0
   -0.6860   -6.2961    0.0000 C   0  0  0  0  0  0  0  0  0  0  0  0
   -0.2225   -7.7227    0.0000 C   0  0  0  0  0  0  0  0  0  0  0  0
   -1.2262   -8.8374    0.0000 C   0  0  0  0  0  0  0  0  0  0  0  0
    1.2447   -8.0346    0.0000 C   0  0  0  0  0  0  0  0  0  0  0  0
    1.7849   -5.4933    0.0000 C   0  0  0  0  0  0  0  0  0  0  0  0
    2.7886   -4.3786    0.0000 O   0  0  0  0  0  0  0  0  0  0  0  0
    2.2484   -6.9199    0.0000 N   0  0  0  0  0  0  0  0  0  0  0  0
    3.7156   -7.2317    0.0000 C   0  0  0  0  0  0  0  0  0  0  0  0
    4.1791   -8.6583    0.0000 C   0  0  0  0  0  0  0  0  0  0  0  0
    3.1755   -9.7730    0.0000 C   0  0  0  0  0  0  0  0  0  0  0  0
    3.6390  -11.1996    0.0000 C   0  0  0  0  0  0  0  0  0  0  0  0
    1.7082   -9.4612    0.0000 C   0  0  0  0  0  0  0  0  0  0  0  0
    4.7193   -6.1170    0.0000 C   0  0  0  0  0  0  0  0  0  0  0  0
    4.2558   -4.6904    0.0000 O   0  0  0  0  0  0  0  0  0  0  0  0
    6.1865   -6.4289    0.0000 N   0  0  0  0  0  0  0  0  0  0  0  0
    7.3013   -5.4252    0.0000 C   0  0  0  0  0  0  0  0  0  0  0  0
    8.6003   -6.1752    0.0000 C   0  0  0  0  0  0  0  0  0  0  0  0
    8.2884   -7.6424    0.0000 C   0  0  0  0  0  0  0  0  0  0  0  0
    6.7966   -7.7992    0.0000 C   0  0  0  0  0  0  0  0  0  0  0  0
    6.0466   -9.0982    0.0000 C   0  0  0  0  0  0  0  0  0  0  0  0
    4.5912   -9.4612    0.0000 O   0  0  0  0  0  0  0  0  0  0  0  0
    6.7966  -10.3973    0.0000 N   0  0  0  0  0  0  0  0  0  0  0  0
    6.0466  -11.6963    0.0000 C   0  0  0  0  0  0  0  0  0  0  0  0
    6.7966  -12.9954    0.0000 C   0  0  0  0  0  0  0  0  0  0  0  0
    6.0466  -14.2944    0.0000 C   0  0  0  0  0  0  0  0  0  0  0  0
    5.2966  -15.5934    0.0000 C   0  0  0  0  0  0  0  0  0  0  0  0
    4.5466  -11.6963    0.0000 C   0  0  0  0  0  0  0  0  0  0  0  0
    3.7966  -10.3973    0.0000 O   0  0  0  0  0  0  0  0  0  0  0  0
    3.7966  -12.9954    0.0000 O   0  0  0  0  0  0  0  0  0  0  0  0
  2  1  1  1
  2  3  1  0
  3  4  1  0
  4  5  1  0
  4  6  1  0
  2  7  1  0
  7  8  2  0
  7  9  1  0
  9 10  1  0
  9 11  1  0
 11 12  1  6
 12 13  1  0
 13 14  1  0
 13 15  1  0
 11 16  1  0
 16 17  2  0
 16 18  1  0
 18 19  1  0
 19 20  1  0
 20 21  1  0
 21 22  1  0
 22 23  1  6
 23 24  2  0
 23 25  1  0
 25 26  1  0
 26 27  1  6
 27 28  1  0
 28 29  1  0
 28 30  1  0
 26 31  1  0
 31 32  2  0
 31 33  1  0
 33 34  1  0
 34 35  1  1
 35 36  1  0
 36 37  1  0
 36 38  1  0
 34 39  1  0
 39 40  2  0
 39 41  1  0
 41 42  1  0
 42 43  1  0
 43 44  1  0
 44 45  1  0
 45 46  1  1
 46 47  2  0
 46 48  1  0
 48 49  1  0
 49 50  1  1
 50 51  1  0
 51 52  3  0
 49 53  1  0
 53 54  2  0
 53 55  1  0
 22 18  1  0
 45 41  1  0
M  END
$$$$

     RDKit          2D

 55 56  0  0  0  0  0  0  0  0999 V2000
    8.0260    1.2990    0.0000 N   0  0  0  0  0  0  0  0  0  0  0  0
    7.2760    0.0000    0.0000 C   0  0  0  0  0  0  0  0  0  0  0  0
    8.0260   -1.2990    0.0000 C   0  0  0  0  0  0  0  0  0  0  0  0
    9.5260   -1.2990    0.0000 C   0  0  0  0  0  0  0  0  0  0  0  0
   10.2760   -2.5981    0.0000 C   0  0  0  0  0  0  0  0  0  0  0  0
   10.2760    0.0000    0.0000 C   0  0  0  0  0  0  0  0  0  0  0  0
    5.7760    0.0000    0.0000 C   0  0  0  0  0  0  0  0  0  0  0  0
    5.0260   -1.2990    0.0000 O   0  0  0  0  0  0  0  0  0  0  0  0
    5.0260    1.2990    0.0000 N   0  0  0  0  0  0  0  0  0  0  0  0
    5.7760    2.5981    0.0000 C   0  0  0  0  0  0  0  0  0  0  0  0
    3.5260    1.2990    0.0000 C   0  0  0  0  0  0  0  0  0  0  0  0
    2.7760    2.5981    0.0000 C   0  0  0  0  0  0  0  0  0  0  0  0
    3.5260    3.8971    0.0000 C   0  0  0  0  0  0  0  0  0  0  0  0
    2.7760    5.1962    0.0000 C   0  0  0  0  0  0  0  0  0  0  0  0
    5.0260    3.8971    0.0000 C   0  0  0  0  0  0  0  0  0  0  0  0
    2.7760    0.0000    0.0000 C   0  0  0  0  0  0  0  0  0  0  0  0
    3.5260   -1.2990    0.0000 O   0  0  0  0  0  0  0  0  0  0  0  0
    1.2760    0.0000    0.0000 N   0  0  0  0  0  0  0  0  0  0  0  0
    0.3943    1.2135    0.0000 C   0  0  0  0  0  0  0  0  0  0  0  0
   -1.0323    0.7500    0.0000 C   0  0  0  0  0  0  0  0  0  0  0  0
   -1.0323   -0.7500    0.0000 C   0  0  0  0  0  0  0  0  0  0  0  0
    0.3943   -1.2135    0.0000 C   0  0  0  0  0  0  0  0  0  0  0  0
    0.8578   -2.6401    0.0000 C   0  0  0  0  0  0  0  0  0  0  0  0
    2.3250   -2.9520    0.0000 O   0  0  0  0  0  0  0  0  0  0  0  0
   -0.1459   -3.7548    0.0000 N   0  0  0  0  0  0  0  0  0  0  0  0
    0.3177   -5.1814    0.0000 C   0  0  0  0  0  0  0  0  0  0  0  0
   -0.6860   -6.2961    0.0000 C   0  0  0  0  0  0  0  0  0  0  0  0
   -0.2225   -7.7227    0.0000 C   0  0  0  0  0  0  0  0  0  0  0  0
   -1.2262   -8.8374    0.0000 C   0  0  0  0  0  0  0  0  0  0  0  0
    1.2447   -8.0346    0.0000 C   0  0  0  0  0  0  0  0  0  0  0  0
    1.7849   -5.4933    0.0000 C   0  0  0  0  0  0  0  0  0  0  0  0
    2.7886   -4.3786    0.0000 O   0  0  0  0  0  0  0  0  0  0  0  0
    2.2484   -6.9199    0.0000 N   0  0  0  0  0  0  0  0  0  0  0  0
    3.7156   -7.2317    0.0000 C   0  0  0  0  0  0  0  0  0  0  0  0
    4.1791   -8.6583    0.0000 C   0  0  0  0  0  0  0  0  0  0  0  0
    3.1755   -9.7730    0.0000 C   0  0  0  0  0  0  0  0  0  0  0  0
    3.6390  -11.1996    0.0000 C   0  0  0  0  0  0  0  0  0  0  0  0
    1.7082   -9.4612    0.0000 C   0  0  0  0  0  0  0  0  0  0  0  0
    4.7193   -6.1170    0.0000 C   0  0  0  0  0  0  0  0  0  0  0  0
    4.2558   -4.6904    0.0000 O   0  0  0  0  0  0  0  0  0  0  0  0
    6.1865   -6.4289    0.0000 N   0  0  0  0  0  0  0  0  0  0  0  0
    7.3013   -5.4252    0.0000 C   0  0  0  0  0  0  0  0  0  0  0  0
    8.6003   -6.1752    0.0000 C   0  0  0  0  0  0  0  0  0  0  0  0
    8.2884   -7.6424    0.0000 C   0  0  0  0  0  0  0  0  0  0  0  0
    6.7966   -7.7992    0.0000 C   0  0  0  0  0  0  0  0  0  0  0  0
    6.0466   -9.0982    0.0000 C   0  0  0  0  0  0  0  0  0  0  0  0
    4.5912   -9.4612    0.0000 O   0  0  0  0  0  0  0  0  0  0  0  0
    6.7966  -10.3973    0.0000 N   0  0  0  0  0  0  0  0  0  0  0  0
    6.0466  -11.6963    0.0000 C   0  0  0  0  0  0  0  0  0  0  0  0
    6.7966  -12.9954    0.0000 C   0  0  0  0  0  0  0  0  0  0  0  0
    6.0466  -14.2944    0.0000 C   0  0  0  0  0  0  0  0  0  0  0  0
    5.2966  -15.5934    0.0000 C   0  0  0  0  0  0  0  0  0  0  0  0
    4.5466  -11.6963    0.0000 C   0  0  0  0  0  0  0  0  0  0  0  0
    3.7966  -10.3973    0.0000 O   0  0  0  0  0  0  0  0  0  0  0  0
    3.7966  -12.9954    0.0000 O   0  0  0  0  0  0  0  0  0  0  0  0
  2  1  1  6
  2  3  1  0
  3  4  1  0
  4  5  1  0
  4  6  1  0
  2  7  1  0
  7  8  2  0
  7  9  1  0
  9 10  1  0
  9 11  1  0
 11 12  1  6
 12 13  1  0
 13 14  1  0
 13 15  1  0
 11 16  1  0
 16 17  2  0
 16 18  1  0
 18 19  1  0
 19 20  1  0
 20 21  1  0
 21 22  1  0
 22 23  1  6
 23 24  2  0
 23 25  1  0
 25 26  1  0
 26 27  1  6
 27 28  1  0
 28 29  1  0
 28 30  1  0
 26 31  1  0
 31 32  2  0
 31 33  1  0
 33 34  1  0
 34 35  1  1
 35 36  1  0
 36 37  1  0
 36 38  1  0
 34 39  1  0
 39 40  2  0
 39 41  1  0
 41 42  1  0
 42 43  1  0
 43 44  1  0
 44 45  1  0
 45 46  1  1
 46 47  2  0
 46 48  1  0
 48 49  1  0
 49 50  1  1
 50 51  1  0
 51 52  3  0
 49 53  1  0
 53 54  2  0
 53 55  1  0
 22 18  1  0
 45 41  1  0
M  END
$$$$

     RDKit          2D

 39 39  0  0  0  0  0  0  0  0999 V2000
   -1.7240    5.1962    0.0000 N   0  0  0  0  0  0  0  0  0  0  0  0
   -0.9740    6.4952    0.0000 C   0  0  0  0  0  0  0  0  0  0  0  0
   -1.7240    7.7942    0.0000 C   0  0  0  0  0  0  0  0  0  0  0  0
   -3.2240    7.7942    0.0000 C   0  0  0  0  0  0  0  0  0  0  0  0
   -3.9740    9.0933    0.0000 C   0  0  0  0  0  0  0  0  0  0  0  0
   -3.9740    6.4952    0.0000 C   0  0  0  0  0  0  0  0  0  0  0  0
    0.5260    6.4952    0.0000 C   0  0  0  0  0  0  0  0  0  0  0  0
    1.2760    7.7942    0.0000 O   0  0  0  0  0  0  0  0  0  0  0  0
    1.2760    5.1962    0.0000 N   0  0  0  0  0  0  0  0  0  0  0  0
    2.7760    5.1962    0.0000 C   0  0  0  0  0  0  0  0  0  0  0  0
    3.5260    6.4952    0.0000 C   0  0  0  0  0  0  0  0  0  0  0  0
    5.0260    6.4952    0.0000 C   0  0  0  0  0  0  0  0  0  0  0  0
    5.7760    5.1962    0.0000 C   0  0  0  0  0  0  0  0  0  0  0  0
    5.7760    7.7942    0.0000 C   0  0  0  0  0  0  0  0  0  0  0  0
    3.5260    3.8971    0.0000 C   0  0  0  0  0  0  0  0  0  0  0  0
    5.0260    3.8971    0.0000 O   0  0  0  0  0  0  0  0  0  0  0  0
    2.7760    2.5981    0.0000 N   0  0  0  0  0  0  0  0  0  0  0  0
    3.5260    1.2990    0.0000 C   0  0  0  0  0  0  0  0  0  0  0  0
    5.0260    1.2990    0.0000 C   0  0  0  0  0  0  0  0  0  0  0  0
    5.7760    0.0000    0.0000 C   0  0  0  0  0  0  0  0  0  0  0  0
    5.0260   -1.2990    0.0000 C   0  0  0  0  0  0  0  0  0  0  0  0
    7.2760    0.0000    0.0000 C   0  0  0  0  0  0  0  0  0  0  0  0
    2.7760    0.0000    0.0000 C   0  0  0  0  0  0  0  0  0  0  0  0
    3.5260   -1.2990    0.0000 O   0  0  0  0  0  0  0  0  0  0  0  0
    1.2760    0.0000    0.0000 N   0  0  0  0  0  0  0  0  0  0  0  0
    0.3943    1.2135    0.0000 C   0  0  0  0  0  0  0  0  0  0  0  0
   -1.0323    0.7500    0.0000 C   0  0  0  0  0  0  0  0  0  0  0  0
   -1.0323   -0.7500    0.0000 C   0  0  0  0  0  0  0  0  0  0  0  0
    0.3943   -1.2135    0.0000 C   0  0  0  0  0  0  0  0  0  0  0  0
    0.8578   -2.6401    0.0000 C   0  0  0  0  0  0  0  0  0  0  0  0
    2.3250   -2.9520    0.0000 O   0  0  0  0  0  0  0  0  0  0  0  0
   -0.1459   -3.7548    0.0000 N   0  0  0  0  0  0  0  0  0  0  0  0
    0.3177   -5.1814    0.0000 C   0  0  0  0  0  0  0  0  0  0  0  0
   -0.6860   -6.2961    0.0000 C   0  0  0  0  0  0  0  0  0  0  0  0
   -0.2225   -7.7227    0.0000 C   0  0  0  0  0  0  0  0  0  0  0  0
    0.2410   -9.1493    0.0000 C   0  0  0  0  0  0  0  0  0  0  0  0
    1.7849   -5.4933    0.0000 C   0  0  0  0  0  0  0  0  0  0  0  0
    2.7886   -4.3786    0.0000 O   0  0  0  0  0  0  0  0  0  0  0  0
    2.2484   -6.9199    0.0000 O   0  0  0  0  0  0  0  0  0  0  0  0
  2  1  1  1
  2  3  1  0
  3  4  1  0
  4  5  1  0
  4  6  1  0
  2  7  1  0
  7  8  2  0
  7  9  1  0
  9 10  1  0
 10 11  1  6
 11 12  1  0
 12 13  1  0
 12 14  1  0
 10 15  1  0
 15 16  2  0
 15 17  1  0
 17 18  1  0
 18 19  1  6
 19 20  1  0
 20 21  1  0
 20 22  1  0
 18 23  1  0
 23 24  2  0
 23 25  1  0
 25 26  1  0
 26 27  1  0
 27 28  1  0
 28 29  1  0
 29 30  1  6
 30 31  2  0
 30 32  1  0
 32 33  1  0
 33 34  1  6
 34 35  1  0
 35 36  3  0
 33 37  1  0
 37 38  2  0
 37 39  1  0
 29 25  1  0
M  END
$$$$

     RDKit          2D

 39 39  0  0  0  0  0  0  0  0999 V2000
   -1.7240    5.1962    0.0000 N   0  0  0  0  0  0  0  0  0  0  0  0
   -0.9740    6.4952    0.0000 C   0  0  0  0  0  0  0  0  0  0  0  0
   -1.7240    7.7942    0.0000 C   0  0  0  0  0  0  0  0  0  0  0  0
   -3.2240    7.7942    0.0000 C   0  0  0  0  0  0  0  0  0  0  0  0
   -3.9740    9.0933    0.0000 C   0  0  0  0  0  0  0  0  0  0  0  0
   -3.9740    6.4952    0.0000 C   0  0  0  0  0  0  0  0  0  0  0  0
    0.5260    6.4952    0.0000 C   0  0  0  0  0  0  0  0  0  0  0  0
    1.2760    7.7942    0.0000 O   0  0  0  0  0  0  0  0  0  0  0  0
    1.2760    5.1962    0.0000 N   0  0  0  0  0  0  0  0  0  0  0  0
    2.7760    5.1962    0.0000 C   0  0  0  0  0  0  0  0  0  0  0  0
    3.5260    6.4952    0.0000 C   0  0  0  0  0  0  0  0  0  0  0  0
    5.0260    6.4952    0.0000 C   0  0  0  0  0  0  0  0  0  0  0  0
    5.7760    5.1962    0.0000 C   0  0  0  0  0  0  0  0  0  0  0  0
    5.7760    7.7942    0.0000 C   0  0  0  0  0  0  0  0  0  0  0  0
    3.5260    3.8971    0.0000 C   0  0  0  0  0  0  0  0  0  0  0  0
    5.0260    3.8971    0.0000 O   0  0  0  0  0  0  0  0  0  0  0  0
    2.7760    2.5981    0.0000 N   0  0  0  0  0  0  0  0  0  0  0  0
    3.5260    1.2990    0.0000 C   0  0  0  0  0  0  0  0  0  0  0  0
    5.0260    1.2990    0.0000 C   0  0  0  0  0  0  0  0  0  0  0  0
    5.7760    0.0000    0.0000 C   0  0  0  0  0  0  0  0  0  0  0  0
    5.0260   -1.2990    0.0000 C   0  0  0  0  0  0  0  0  0  0  0  0
    7.2760    0.0000    0.0000 C   0  0  0  0  0  0  0  0  0  0  0  0
    2.7760    0.0000    0.0000 C   0  0  0  0  0  0  0  0  0  0  0  0
    3.5260   -1.2990    0.0000 O   0  0  0  0  0  0  0  0  0  0  0  0
    1.2760    0.0000    0.0000 N   0  0  0  0  0  0  0  0  0  0  0  0
    0.3943    1.2135    0.0000 C   0  0  0  0  0  0  0  0  0  0  0  0
   -1.0323    0.7500    0.0000 C   0  0  0  0  0  0  0  0  0  0  0  0
   -1.0323   -0.7500    0.0000 C   0  0  0  0  0  0  0  0  0  0  0  0
    0.3943   -1.2135    0.0000 C   0  0  0  0  0  0  0  0  0  0  0  0
    0.8578   -2.6401    0.0000 C   0  0  0  0  0  0  0  0  0  0  0  0
    2.3250   -2.9520    0.0000 O   0  0  0  0  0  0  0  0  0  0  0  0
   -0.1459   -3.7548    0.0000 N   0  0  0  0  0  0  0  0  0  0  0  0
    0.3177   -5.1814    0.0000 C   0  0  0  0  0  0  0  0  0  0  0  0
   -0.6860   -6.2961    0.0000 C   0  0  0  0  0  0  0  0  0  0  0  0
   -0.2225   -7.7227    0.0000 C   0  0  0  0  0  0  0  0  0  0  0  0
    0.2410   -9.1493    0.0000 C   0  0  0  0  0  0  0  0  0  0  0  0
    1.7849   -5.4933    0.0000 C   0  0  0  0  0  0  0  0  0  0  0  0
    2.7886   -4.3786    0.0000 O   0  0  0  0  0  0  0  0  0  0  0  0
    2.2484   -6.9199    0.0000 O   0  0  0  0  0  0  0  0  0  0  0  0
  2  1  1  6
  2  3  1  0
  3  4  1  0
  4  5  1  0
  4  6  1  0
  2  7  1  0
  7  8  2  0
  7  9  1  0
  9 10  1  0
 10 11  1  6
 11 12  1  0
 12 13  1  0
 12 14  1  0
 10 15  1  0
 15 16  2  0
 15 17  1  0
 17 18  1  0
 18 19  1  6
 19 20  1  0
 20 21  1  0
 20 22  1  0
 18 23  1  0
 23 24  2  0
 23 25  1  0
 25 26  1  0
 26 27  1  0
 27 28  1  0
 28 29  1  0
 29 30  1  6
 30 31  2  0
 30 32  1  0
 32 33  1  0
 33 34  1  6
 34 35  1  0
 35 36  3  0
 33 37  1  0
 37 38  2  0
 37 39  1  0
 29 25  1  0
M  END
$$$$

     RDKit          2D

 38 38  0  0  0  0  0  0  0  0999 V2000
   -1.7240    5.1962    0.0000 N   0  0  0  0  0  0  0  0  0  0  0  0
   -0.9740    6.4952    0.0000 C   0  0  0  0  0  0  0  0  0  0  0  0
   -1.7240    7.7942    0.0000 C   0  0  0  0  0  0  0  0  0  0  0  0
   -3.2240    7.7942    0.0000 C   0  0  0  0  0  0  0  0  0  0  0  0
   -0.9740    9.0933    0.0000 C   0  0  0  0  0  0  0  0  0  0  0  0
    0.5260    6.4952    0.0000 C   0  0  0  0  0  0  0  0  0  0  0  0
    1.2760    7.7942    0.0000 O   0  0  0  0  0  0  0  0  0  0  0  0
    1.2760    5.1962    0.0000 N   0  0  0  0  0  0  0  0  0  0  0  0
    2.7760    5.1962    0.0000 C   0  0  0  0  0  0  0  0  0  0  0  0
    3.5260    6.4952    0.0000 C   0  0  0  0  0  0  0  0  0  0  0  0
    5.0260    6.4952    0.0000 C   0  0  0  0  0  0  0  0  0  0  0  0
    5.7760    7.7942    0.0000 C   0  0  0  0  0  0  0  0  0  0  0  0
    5.7760    5.1962    0.0000 C   0  0  0  0  0  0  0  0  0  0  0  0
    3.5260    3.8971    0.0000 C   0  0  0  0  0  0  0  0  0  0  0  0
    5.0260    3.8971    0.0000 O   0  0  0  0  0  0  0  0  0  0  0  0
    2.7760    2.5981    0.0000 N   0  0  0  0  0  0  0  0  0  0  0  0
    3.5260    1.2990    0.0000 C   0  0  0  0  0  0  0  0  0  0  0  0
    5.0260    1.2990    0.0000 C   0  0  0  0  0  0  0  0  0  0  0  0
    5.7760    0.0000    0.0000 C   0  0  0  0  0  0  0  0  0  0  0  0
    7.2760    0.0000    0.0000 C   0  0  0  0  0  0  0  0  0  0  0  0
    5.0260   -1.2990    0.0000 C   0  0  0  0  0  0  0  0  0  0  0  0
    2.7760    0.0000    0.0000 C   0  0  0  0  0  0  0  0  0  0  0  0
    3.5260   -1.2990    0.0000 O   0  0  0  0  0  0  0  0  0  0  0  0
    1.2760    0.0000    0.0000 N   0  0  0  0  0  0  0  0  0  0  0  0
    0.3943    1.2135    0.0000 C   0  0  0  0  0  0  0  0  0  0  0  0
   -1.0323    0.7500    0.0000 C   0  0  0  0  0  0  0  0  0  0  0  0
   -1.0323   -0.7500    0.0000 C   0  0  0  0  0  0  0  0  0  0  0  0
    0.3943   -1.2135    0.0000 C   0  0  0  0  0  0  0  0  0  0  0  0
    0.8578   -2.6401    0.0000 C   0  0  0  0  0  0  0  0  0  0  0  0
    2.3250   -2.9520    0.0000 O   0  0  0  0  0  0  0  0  0  0  0  0
   -0.1459   -3.7548    0.0000 N   0  0  0  0  0  0  0  0  0  0  0  0
    0.3177   -5.1814    0.0000 C   0  0  0  0  0  0  0  0  0  0  0  0
   -0.6860   -6.2961    0.0000 C   0  0  0  0  0  0  0  0  0  0  0  0
   -0.2225   -7.7227    0.0000 C   0  0  0  0  0  0  0  0  0  0  0  0
    0.2410   -9.1493    0.0000 C   0  0  0  0  0  0  0  0  0  0  0  0
    1.7849   -5.4933    0.0000 C   0  0  0  0  0  0  0  0  0  0  0  0
    2.7886   -4.3786    0.0000 O   0  0  0  0  0  0  0  0  0  0  0  0
    2.2484   -6.9199    0.0000 O   0  0  0  0  0  0  0  0  0  0  0  0
  2  1  1  1
  2  3  1  0
  3  4  1  0
  3  5  1  0
  2  6  1  0
  6  7  2  0
  6  8  1  0
  8  9  1  0
  9 10  1  6
 10 11  1  0
 11 12  1  0
 11 13  1  0
  9 14  1  0
 14 15  2  0
 14 16  1  0
 16 17  1  0
 17 18  1  6
 18 19  1  0
 19 20  1  0
 19 21  1  0
 17 22  1  0
 22 23  2  0
 22 24  1  0
 24 25  1  0
 25 26  1  0
 26 27  1  0
 27 28  1  0
 28 29  1  6
 29 30  2  0
 29 31  1  0
 31 32  1  0
 32 33  1  6
 33 34  1  0
 34 35  3  0
 32 36  1  0
 36 37  2  0
 36 38  1  0
 28 24  1  0
M  END
$$$$

     RDKit          2D

 38 38  0  0  0  0  0  0  0  0999 V2000
   -1.7240    5.1962    0.0000 N   0  0  0  0  0  0  0  0  0  0  0  0
   -0.9740    6.4952    0.0000 C   0  0  0  0  0  0  0  0  0  0  0  0
   -1.7240    7.7942    0.0000 C   0  0  0  0  0  0  0  0  0  0  0  0
   -3.2240    7.7942    0.0000 C   0  0  0  0  0  0  0  0  0  0  0  0
   -0.9740    9.0933    0.0000 C   0  0  0  0  0  0  0  0  0  0  0  0
    0.5260    6.4952    0.0000 C   0  0  0  0  0  0  0  0  0  0  0  0
    1.2760    7.7942    0.0000 O   0  0  0  0  0  0  0  0  0  0  0  0
    1.2760    5.1962    0.0000 N   0  0  0  0  0  0  0  0  0  0  0  0
    2.7760    5.1962    0.0000 C   0  0  0  0  0  0  0  0  0  0  0  0
    3.5260    6.4952    0.0000 C   0  0  0  0  0  0  0  0  0  0  0  0
    5.0260    6.4952    0.0000 C   0  0  0  0  0  0  0  0  0  0  0  0
    5.7760    7.7942    0.0000 C   0  0  0  0  0  0  0  0  0  0  0  0
    5.7760    5.1962    0.0000 C   0  0  0  0  0  0  0  0  0  0  0  0
    3.5260    3.8971    0.0000 C   0  0  0  0  0  0  0  0  0  0  0  0
    5.0260    3.8971    0.0000 O   0  0  0  0  0  0  0  0  0  0  0  0
    2.7760    2.5981    0.0000 N   0  0  0  0  0  0  0  0  0  0  0  0
    3.5260    1.2990    0.0000 C   0  0  0  0  0  0  0  0  0  0  0  0
    5.0260    1.2990    0.0000 C   0  0  0  0  0  0  0  0  0  0  0  0
    5.7760    0.0000    0.0000 C   0  0  0  0  0  0  0  0  0  0  0  0
    7.2760    0.0000    0.0000 C   0  0  0  0  0  0  0  0  0  0  0  0
    5.0260   -1.2990    0.0000 C   0  0  0  0  0  0  0  0  0  0  0  0
    2.7760    0.0000    0.0000 C   0  0  0  0  0  0  0  0  0  0  0  0
    3.5260   -1.2990    0.0000 O   0  0  0  0  0  0  0  0  0  0  0  0
    1.2760    0.0000    0.0000 N   0  0  0  0  0  0  0  0  0  0  0  0
    0.3943    1.2135    0.0000 C   0  0  0  0  0  0  0  0  0  0  0  0
   -1.0323    0.7500    0.0000 C   0  0  0  0  0  0  0  0  0  0  0  0
   -1.0323   -0.7500    0.0000 C   0  0  0  0  0  0  0  0  0  0  0  0
    0.3943   -1.2135    0.0000 C   0  0  0  0  0  0  0  0  0  0  0  0
    0.8578   -2.6401    0.0000 C   0  0  0  0  0  0  0  0  0  0  0  0
    2.3250   -2.9520    0.0000 O   0  0  0  0  0  0  0  0  0  0  0  0
   -0.1459   -3.7548    0.0000 N   0  0  0  0  0  0  0  0  0  0  0  0
    0.3177   -5.1814    0.0000 C   0  0  0  0  0  0  0  0  0  0  0  0
   -0.6860   -6.2961    0.0000 C   0  0  0  0  0  0  0  0  0  0  0  0
   -0.2225   -7.7227    0.0000 C   0  0  0  0  0  0  0  0  0  0  0  0
    0.2410   -9.1493    0.0000 C   0  0  0  0  0  0  0  0  0  0  0  0
    1.7849   -5.4933    0.0000 C   0  0  0  0  0  0  0  0  0  0  0  0
    2.7886   -4.3786    0.0000 O   0  0  0  0  0  0  0  0  0  0  0  0
    2.2484   -6.9199    0.0000 O   0  0  0  0  0  0  0  0  0  0  0  0
  2  1  1  6
  2  3  1  0
  3  4  1  0
  3  5  1  0
  2  6  1  0
  6  7  2  0
  6  8  1  0
  8  9  1  0
  9 10  1  6
 10 11  1  0
 11 12  1  0
 11 13  1  0
  9 14  1  0
 14 15  2  0
 14 16  1  0
 16 17  1  0
 17 18  1  6
 18 19  1  0
 19 20  1  0
 19 21  1  0
 17 22  1  0
 22 23  2  0
 22 24  1  0
 24 25  1  0
 25 26  1  0
 26 27  1  0
 27 28  1  0
 28 29  1  6
 29 30  2  0
 29 31  1  0
 31 32  1  0
 32 33  1  6
 33 34  1  0
 34 35  3  0
 32 36  1  0
 36 37  2  0
 36 38  1  0
 28 24  1  0
M  END
$$$$

     RDKit          2D

 40 40  0  0  0  0  0  0  0  0999 V2000
   -1.7240    5.1962    0.0000 N   0  0  0  0  0  0  0  0  0  0  0  0
   -3.2240    5.1962    0.0000 C   0  0  0  0  0  0  0  0  0  0  0  0
   -0.9740    6.4952    0.0000 C   0  0  0  0  0  0  0  0  0  0  0  0
   -1.7240    7.7942    0.0000 C   0  0  0  0  0  0  0  0  0  0  0  0
   -3.2240    7.7942    0.0000 C   0  0  0  0  0  0  0  0  0  0  0  0
   -3.9740    9.0933    0.0000 C   0  0  0  0  0  0  0  0  0  0  0  0
   -3.9740    6.4952    0.0000 C   0  0  0  0  0  0  0  0  0  0  0  0
    0.5260    6.4952    0.0000 C   0  0  0  0  0  0  0  0  0  0  0  0
    1.2760    7.7942    0.0000 O   0  0  0  0  0  0  0  0  0  0  0  0
    1.2760    5.1962    0.0000 N   0  0  0  0  0  0  0  0  0  0  0  0
    2.7760    5.1962    0.0000 C   0  0  0  0  0  0  0  0  0  0  0  0
    3.5260    6.4952    0.0000 C   0  0  0  0  0  0  0  0  0  0  0  0
    5.0260    6.4952    0.0000 C   0  0  0  0  0  0  0  0  0  0  0  0
    5.7760    5.1962    0.0000 C   0  0  0  0  0  0  0  0  0  0  0  0
    5.7760    7.7942    0.0000 C   0  0  0  0  0  0  0  0  0  0  0  0
    3.5260    3.8971    0.0000 C   0  0  0  0  0  0  0  0  0  0  0  0
    5.0260    3.8971    0.0000 O   0  0  0  0  0  0  0  0  0  0  0  0
    2.7760    2.5981    0.0000 N   0  0  0  0  0  0  0  0  0  0  0  0
    3.5260    1.2990    0.0000 C   0  0  0  0  0  0  0  0  0  0  0  0
    5.0260    1.2990    0.0000 C   0  0  0  0  0  0  0  0  0  0  0  0
    5.7760    0.0000    0.0000 C   0  0  0  0  0  0  0  0  0  0  0  0
    7.2760    0.0000    0.0000 C   0  0  0  0  0  0  0  0  0  0  0  0
    5.0260   -1.2990    0.0000 C   0  0  0  0  0  0  0  0  0  0  0  0
    2.7760    0.0000    0.0000 C   0  0  0  0  0  0  0  0  0  0  0  0
    3.5260   -1.2990    0.0000 O   0  0  0  0  0  0  0  0  0  0  0  0
    1.2760    0.0000    0.0000 N   0  0  0  0  0  0  0  0  0  0  0  0
    0.3943    1.2135    0.0000 C   0  0  0  0  0  0  0  0  0  0  0  0
   -1.0323    0.7500    0.0000 C   0  0  0  0  0  0  0  0  0  0  0  0
   -1.0323   -0.7500    0.0000 C   0  0  0  0  0  0  0  0  0  0  0  0
    0.3943   -1.2135    0.0000 C   0  0  0  0  0  0  0  0  0  0  0  0
    0.8578   -2.6401    0.0000 C   0  0  0  0  0  0  0  0  0  0  0  0
    2.3250   -2.9520    0.0000 O   0  0  0  0  0  0  0  0  0  0  0  0
   -0.1459   -3.7548    0.0000 N   0  0  0  0  0  0  0  0  0  0  0  0
    0.3177   -5.1814    0.0000 C   0  0  0  0  0  0  0  0  0  0  0  0
   -0.6860   -6.2961    0.0000 C   0  0  0  0  0  0  0  0  0  0  0  0
   -0.2225   -7.7227    0.0000 C   0  0  0  0  0  0  0  0  0  0  0  0
    0.2410   -9.1493    0.0000 C   0  0  0  0  0  0  0  0  0  0  0  0
    1.7849   -5.4933    0.0000 C   0  0  0  0  0  0  0  0  0  0  0  0
    2.7886   -4.3786    0.0000 O   0  0  0  0  0  0  0  0  0  0  0  0
    2.2484   -6.9199    0.0000 O   0  0  0  0  0  0  0  0  0  0  0  0
  1  2  1  0
  1  3  1  0
  3  4  1  1
  4  5  1  0
  5  6  1  0
  5  7  1  0
  3  8  1  0
  8  9  2  0
  8 10  1  0
 10 11  1  0
 11 12  1  6
 12 13  1  0
 13 14  1  0
 13 15  1  0
 11 16  1  0
 16 17  2  0
 16 18  1  0
 18 19  1  0
 19 20  1  6
 20 21  1  0
 21 22  1  0
 21 23  1  0
 19 24  1  0
 24 25  2  0
 24 26  1  0
 26 27  1  0
 27 28  1  0
 28 29  1  0
 29 30  1  0
 30 31  1  6
 31 32  2  0
 31 33  1  0
 33 34  1  0
 34 35  1  6
 35 36  1  0
 36 37  3  0
 34 38  1  0
 38 39  2  0
 38 40  1  0
 30 26  1  0
M  END
$$$$

     RDKit          2D

 40 40  0  0  0  0  0  0  0  0999 V2000
   -1.7240    5.1962    0.0000 N   0  0  0  0  0  0  0  0  0  0  0  0
   -3.2240    5.1962    0.0000 C   0  0  0  0  0  0  0  0  0  0  0  0
   -0.9740    6.4952    0.0000 C   0  0  0  0  0  0  0  0  0  0  0  0
   -1.7240    7.7942    0.0000 C   0  0  0  0  0  0  0  0  0  0  0  0
   -3.2240    7.7942    0.0000 C   0  0  0  0  0  0  0  0  0  0  0  0
   -3.9740    9.0933    0.0000 C   0  0  0  0  0  0  0  0  0  0  0  0
   -3.9740    6.4952    0.0000 C   0  0  0  0  0  0  0  0  0  0  0  0
    0.5260    6.4952    0.0000 C   0  0  0  0  0  0  0  0  0  0  0  0
    1.2760    7.7942    0.0000 O   0  0  0  0  0  0  0  0  0  0  0  0
    1.2760    5.1962    0.0000 N   0  0  0  0  0  0  0  0  0  0  0  0
    2.7760    5.1962    0.0000 C   0  0  0  0  0  0  0  0  0  0  0  0
    3.5260    6.4952    0.0000 C   0  0  0  0  0  0  0  0  0  0  0  0
    5.0260    6.4952    0.0000 C   0  0  0  0  0  0  0  0  0  0  0  0
    5.7760    5.1962    0.0000 C   0  0  0  0  0  0  0  0  0  0  0  0
    5.7760    7.7942    0.0000 C   0  0  0  0  0  0  0  0  0  0  0  0
    3.5260    3.8971    0.0000 C   0  0  0  0  0  0  0  0  0  0  0  0
    5.0260    3.8971    0.0000 O   0  0  0  0  0  0  0  0  0  0  0  0
    2.7760    2.5981    0.0000 N   0  0  0  0  0  0  0  0  0  0  0  0
    3.5260    1.2990    0.0000 C   0  0  0  0  0  0  0  0  0  0  0  0
    5.0260    1.2990    0.0000 C   0  0  0  0  0  0  0  0  0  0  0  0
    5.7760    0.0000    0.0000 C   0  0  0  0  0  0  0  0  0  0  0  0
    7.2760    0.0000    0.0000 C   0  0  0  0  0  0  0  0  0  0  0  0
    5.0260   -1.2990    0.0000 C   0  0  0  0  0  0  0  0  0  0  0  0
    2.7760    0.0000    0.0000 C   0  0  0  0  0  0  0  0  0  0  0  0
    3.5260   -1.2990    0.0000 O   0  0  0  0  0  0  0  0  0  0  0  0
    1.2760    0.0000    0.0000 N   0  0  0  0  0  0  0  0  0  0  0  0
    0.3943    1.2135    0.0000 C   0  0  0  0  0  0  0  0  0  0  0  0
   -1.0323    0.7500    0.0000 C   0  0  0  0  0  0  0  0  0  0  0  0
   -1.0323   -0.7500    0.0000 C   0  0  0  0  0  0  0  0  0  0  0  0
    0.3943   -1.2135    0.0000 C   0  0  0  0  0  0  0  0  0  0  0  0
    0.8578   -2.6401    0.0000 C   0  0  0  0  0  0  0  0  0  0  0  0
    2.3250   -2.9520    0.0000 O   0  0  0  0  0  0  0  0  0  0  0  0
   -0.1459   -3.7548    0.0000 N   0  0  0  0  0  0  0  0  0  0  0  0
    0.3177   -5.1814    0.0000 C   0  0  0  0  0  0  0  0  0  0  0  0
   -0.6860   -6.2961    0.0000 C   0  0  0  0  0  0  0  0  0  0  0  0
   -0.2225   -7.7227    0.0000 C   0  0  0  0  0  0  0  0  0  0  0  0
    0.2410   -9.1493    0.0000 C   0  0  0  0  0  0  0  0  0  0  0  0
    1.7849   -5.4933    0.0000 C   0  0  0  0  0  0  0  0  0  0  0  0
    2.7886   -4.3786    0.0000 O   0  0  0  0  0  0  0  0  0  0  0  0
    2.2484   -6.9199    0.0000 O   0  0  0  0  0  0  0  0  0  0  0  0
  1  2  1  0
  1  3  1  0
  3  4  1  6
  4  5  1  0
  5  6  1  0
  5  7  1  0
  3  8  1  0
  8  9  2  0
  8 10  1  0
 10 11  1  0
 11 12  1  6
 12 13  1  0
 13 14  1  0
 13 15  1  0
 11 16  1  0
 16 17  2  0
 16 18  1  0
 18 19  1  0
 19 20  1  6
 20 21  1  0
 21 22  1  0
 21 23  1  0
 19 24  1  0
 24 25  2  0
 24 26  1  0
 26 27  1  0
 27 28  1  0
 28 29  1  0
 29 30  1  0
 30 31  1  6
 31 32  2  0
 31 33  1  0
 33 34  1  0
 34 35  1  6
 35 36  1  0
 36 37  3  0
 34 38  1  0
 38 39  2  0
 38 40  1  0
 30 26  1  0
M  END
$$$$

     RDKit          2D

 42 43  0  0  0  0  0  0  0  0999 V2000
   -0.7500   -3.8971    0.0000 N   0  0  0  0  0  0  0  0  0  0  0  0
    0.7500   -3.8971    0.0000 C   0  0  0  0  0  0  0  0  0  0  0  0
    1.5000   -2.5981    0.0000 C   0  0  0  0  0  0  0  0  0  0  0  0
    0.7500   -1.2990    0.0000 C   0  0  0  0  0  0  0  0  0  0  0  0
    1.5000    0.0000    0.0000 C   0  0  0  0  0  0  0  0  0  0  0  0
    0.7500    1.2990    0.0000 C   0  0  0  0  0  0  0  0  0  0  0  0
   -0.7500    1.2990    0.0000 C   0  0  0  0  0  0  0  0  0  0  0  0
   -1.5000    0.0000    0.0000 C   0  0  0  0  0  0  0  0  0  0  0  0
   -0.7500   -1.2990    0.0000 C   0  0  0  0  0  0  0  0  0  0  0  0
    1.5000   -5.1962    0.0000 C   0  0  0  0  0  0  0  0  0  0  0  0
    3.0000   -5.1962    0.0000 O   0  0  0  0  0  0  0  0  0  0  0  0
    0.7500   -6.4952    0.0000 N   0  0  0  0  0  0  0  0  0  0  0  0
    1.5000   -7.7942    0.0000 C   0  0  0  0  0  0  0  0  0  0  0  0
    0.7500   -9.0933    0.0000 C   0  0  0  0  0  0  0  0  0  0  0  0
    1.5000  -10.3923    0.0000 C   0  0  0  0  0  0  0  0  0  0  0  0
    0.7500  -11.6913    0.0000 C   0  0  0  0  0  0  0  0  0  0  0  0
    3.0000  -10.3923    0.0000 C   0  0  0  0  0  0  0  0  0  0  0  0
    3.0000   -7.7942    0.0000 C   0  0  0  0  0  0  0  0  0  0  0  0
    3.7500   -6.4952    0.0000 O   0  0  0  0  0  0  0  0  0  0  0  0
    3.7500   -9.0933    0.0000 N   0  0  0  0  0  0  0  0  0  0  0  0
    5.2500   -9.0933    0.0000 C   0  0  0  0  0  0  0  0  0  0  0  0
    6.0000  -10.3923    0.0000 C   0  0  0  0  0  0  0  0  0  0  0  0
    5.2500  -11.6913    0.0000 C   0  0  0  0  0  0  0  0  0  0  0  0
    6.0000  -12.9904    0.0000 C   0  0  0  0  0  0  0  0  0  0  0  0
    3.7500  -11.6913    0.0000 C   0  0  0  0  0  0  0  0  0  0  0  0
    6.0000   -7.7942    0.0000 C   0  0  0  0  0  0  0  0  0  0  0  0
    5.2500   -6.4952    0.0000 O   0  0  0  0  0  0  0  0  0  0  0  0
    7.5000   -7.7942    0.0000 N   0  0  0  0  0  0  0  0  0  0  0  0
    8.3817   -9.0078    0.0000 C   0  0  0  0  0  0  0  0  0  0  0  0
    9.8083   -8.5442    0.0000 C   0  0  0  0  0  0  0  0  0  0  0  0
    9.8083   -7.0442    0.0000 C   0  0  0  0  0  0  0  0  0  0  0  0
    8.3817   -6.5807    0.0000 C   0  0  0  0  0  0  0  0  0  0  0  0
    7.9182   -5.1541    0.0000 C   0  0  0  0  0  0  0  0  0  0  0  0
    6.4509   -4.8423    0.0000 O   0  0  0  0  0  0  0  0  0  0  0  0
    8.9218   -4.0394    0.0000 N   0  0  0  0  0  0  0  0  0  0  0  0
    8.4583   -2.6128    0.0000 C   0  0  0  0  0  0  0  0  0  0  0  0
    9.4620   -1.4981    0.0000 C   0  0  0  0  0  0  0  0  0  0  0  0
    8.9985   -0.0715    0.0000 C   0  0  0  0  0  0  0  0  0  0  0  0
    8.5350    1.3551    0.0000 C   0  0  0  0  0  0  0  0  0  0  0  0
    6.9911   -2.3009    0.0000 C   0  0  0  0  0  0  0  0  0  0  0  0
    5.9874   -3.4157    0.0000 O   0  0  0  0  0  0  0  0  0  0  0  0
    6.5276   -0.8744    0.0000 O   0  0  0  0  0  0  0  0  0  0  0  0
  2  1  1  1
  2  3  1  0
  3  4  1  0
  4  5  2  0
  5  6  1  0
  6  7  2  0
  7  8  1  0
  8  9  2  0
  2 10  1  0
 10 11  2  0
 10 12  1  0
 12 13  1  0
 13 14  1  1
 14 15  1  0
 15 16  1  0
 15 17  1  0
 13 18  1  0
 18 19  2  0
 18 20  1  0
 20 21  1  0
 21 22  1  1
 22 23  1  0
 23 24  1  0
 23 25  1  0
 21 26  1  0
 26 27  2  0
 26 28  1  0
 28 29  1  0
 29 30  1  0
 30 31  1  0
 31 32  1  0
 32 33  1  6
 33 34  2  0
 33 35  1  0
 35 36  1  0
 36 37  1  6
 37 38  1  0
 38 39  3  0
 36 40  1  0
 40 41  2  0
 40 42  1  0
  9  4  1  0
 32 28  1  0
M  END
$$$$

     RDKit          2D

 42 43  0  0  0  0  0  0  0  0999 V2000
   -0.7500   -3.8971    0.0000 N   0  0  0  0  0  0  0  0  0  0  0  0
    0.7500   -3.8971    0.0000 C   0  0  0  0  0  0  0  0  0  0  0  0
    1.5000   -2.5981    0.0000 C   0  0  0  0  0  0  0  0  0  0  0  0
    0.7500   -1.2990    0.0000 C   0  0  0  0  0  0  0  0  0  0  0  0
    1.5000    0.0000    0.0000 C   0  0  0  0  0  0  0  0  0  0  0  0
    0.7500    1.2990    0.0000 C   0  0  0  0  0  0  0  0  0  0  0  0
   -0.7500    1.2990    0.0000 C   0  0  0  0  0  0  0  0  0  0  0  0
   -1.5000    0.0000    0.0000 C   0  0  0  0  0  0  0  0  0  0  0  0
   -0.7500   -1.2990    0.0000 C   0  0  0  0  0  0  0  0  0  0  0  0
    1.5000   -5.1962    0.0000 C   0  0  0  0  0  0  0  0  0  0  0  0
    3.0000   -5.1962    0.0000 O   0  0  0  0  0  0  0  0  0  0  0  0
    0.7500   -6.4952    0.0000 N   0  0  0  0  0  0  0  0  0  0  0  0
    1.5000   -7.7942    0.0000 C   0  0  0  0  0  0  0  0  0  0  0  0
    0.7500   -9.0933    0.0000 C   0  0  0  0  0  0  0  0  0  0  0  0
    1.5000  -10.3923    0.0000 C   0  0  0  0  0  0  0  0  0  0  0  0
    0.7500  -11.6913    0.0000 C   0  0  0  0  0  0  0  0  0  0  0  0
    3.0000  -10.3923    0.0000 C   0  0  0  0  0  0  0  0  0  0  0  0
    3.0000   -7.7942    0.0000 C   0  0  0  0  0  0  0  0  0  0  0  0
    3.7500   -6.4952    0.0000 O   0  0  0  0  0  0  0  0  0  0  0  0
    3.7500   -9.0933    0.0000 N   0  0  0  0  0  0  0  0  0  0  0  0
    5.2500   -9.0933    0.0000 C   0  0  0  0  0  0  0  0  0  0  0  0
    6.0000  -10.3923    0.0000 C   0  0  0  0  0  0  0  0  0  0  0  0
    5.2500  -11.6913    0.0000 C   0  0  0  0  0  0  0  0  0  0  0  0
    6.0000  -12.9904    0.0000 C   0  0  0  0  0  0  0  0  0  0  0  0
    3.7500  -11.6913    0.0000 C   0  0  0  0  0  0  0  0  0  0  0  0
    6.0000   -7.7942    0.0000 C   0  0  0  0  0  0  0  0  0  0  0  0
    5.2500   -6.4952    0.0000 O   0  0  0  0  0  0  0  0  0  0  0  0
    7.5000   -7.7942    0.0000 N   0  0  0  0  0  0  0  0  0  0  0  0
    8.3817   -9.0078    0.0000 C   0  0  0  0  0  0  0  0  0  0  0  0
    9.8083   -8.5442    0.0000 C   0  0  0  0  0  0  0  0  0  0  0  0
    9.8083   -7.0442    0.0000 C   0  0  0  0  0  0  0  0  0  0  0  0
    8.3817   -6.5807    0.0000 C   0  0  0  0  0  0  0  0  0  0  0  0
    7.9182   -5.1541    0.0000 C   0  0  0  0  0  0  0  0  0  0  0  0
    6.4509   -4.8423    0.0000 O   0  0  0  0  0  0  0  0  0  0  0  0
    8.9218   -4.0394    0.0000 N   0  0  0  0  0  0  0  0  0  0  0  0
    8.4583   -2.6128    0.0000 C   0  0  0  0  0  0  0  0  0  0  0  0
    9.4620   -1.4981    0.0000 C   0  0  0  0  0  0  0  0  0  0  0  0
    8.9985   -0.0715    0.0000 C   0  0  0  0  0  0  0  0  0  0  0  0
    8.5350    1.3551    0.0000 C   0  0  0  0  0  0  0  0  0  0  0  0
    6.9911   -2.3009    0.0000 C   0  0  0  0  0  0  0  0  0  0  0  0
    5.9874   -3.4157    0.0000 O   0  0  0  0  0  0  0  0  0  0  0  0
    6.5276   -0.8744    0.0000 O   0  0  0  0  0  0  0  0  0  0  0  0
  2  1  1  6
  2  3  1  0
  3  4  1  0
  4  5  2  0
  5  6  1  0
  6  7  2  0
  7  8  1  0
  8  9  2  0
  2 10  1  0
 10 11  2  0
 10 12  1  0
 12 13  1  0
 13 14  1  1
 14 15  1  0
 15 16  1  0
 15 17  1  0
 13 18  1  0
 18 19  2  0
 18 20  1  0
 20 21  1  0
 21 22  1  1
 22 23  1  0
 23 24  1  0
 23 25  1  0
 21 26  1  0
 26 27  2  0
 26 28  1  0
 28 29  1  0
 29 30  1  0
 30 31  1  0
 31 32  1  0
 32 33  1  6
 33 34  2  0
 33 35  1  0
 35 36  1  0
 36 37  1  6
 37 38  1  0
 38 39  3  0
 36 40  1  0
 40 41  2  0
 40 42  1  0
  9  4  1  0
 32 28  1  0
M  END
$$$$

     RDKit          2D

 43 44  0  0  0  0  0  0  0  0999 V2000
   -0.7500   -3.8971    0.0000 N   0  0  0  0  0  0  0  0  0  0  0  0
   -1.5000   -5.1962    0.0000 C   0  0  0  0  0  0  0  0  0  0  0  0
    0.7500   -3.8971    0.0000 C   0  0  0  0  0  0  0  0  0  0  0  0
    1.5000   -2.5981    0.0000 C   0  0  0  0  0  0  0  0  0  0  0  0
    0.7500   -1.2990    0.0000 C   0  0  0  0  0  0  0  0  0  0  0  0
    1.5000    0.0000    0.0000 C   0  0  0  0  0  0  0  0  0  0  0  0
    0.7500    1.2990    0.0000 C   0  0  0  0  0  0  0  0  0  0  0  0
   -0.7500    1.2990    0.0000 C   0  0  0  0  0  0  0  0  0  0  0  0
   -1.5000    0.0000    0.0000 C   0  0  0  0  0  0  0  0  0  0  0  0
   -0.7500   -1.2990    0.0000 C   0  0  0  0  0  0  0  0  0  0  0  0
    1.5000   -5.1962    0.0000 C   0  0  0  0  0  0  0  0  0  0  0  0
    3.0000   -5.1962    0.0000 O   0  0  0  0  0  0  0  0  0  0  0  0
    0.7500   -6.4952    0.0000 N   0  0  0  0  0  0  0  0  0  0  0  0
    1.5000   -7.7942    0.0000 C   0  0  0  0  0  0  0  0  0  0  0  0
    0.7500   -9.0933    0.0000 C   0  0  0  0  0  0  0  0  0  0  0  0
    1.5000  -10.3923    0.0000 C   0  0  0  0  0  0  0  0  0  0  0  0
    0.7500  -11.6913    0.0000 C   0  0  0  0  0  0  0  0  0  0  0  0
    3.0000  -10.3923    0.0000 C   0  0  0  0  0  0  0  0  0  0  0  0
    3.0000   -7.7942    0.0000 C   0  0  0  0  0  0  0  0  0  0  0  0
    3.7500   -6.4952    0.0000 O   0  0  0  0  0  0  0  0  0  0  0  0
    3.7500   -9.0933    0.0000 N   0  0  0  0  0  0  0  0  0  0  0  0
    5.2500   -9.0933    0.0000 C   0  0  0  0  0  0  0  0  0  0  0  0
    6.0000  -10.3923    0.0000 C   0  0  0  0  0  0  0  0  0  0  0  0
    5.2500  -11.6913    0.0000 C   0  0  0  0  0  0  0  0  0  0  0  0
    6.0000  -12.9904    0.0000 C   0  0  0  0  0  0  0  0  0  0  0  0
    3.7500  -11.6913    0.0000 C   0  0  0  0  0  0  0  0  0  0  0  0
    6.0000   -7.7942    0.0000 C   0  0  0  0  0  0  0  0  0  0  0  0
    5.2500   -6.4952    0.0000 O   0  0  0  0  0  0  0  0  0  0  0  0
    7.5000   -7.7942    0.0000 N   0  0  0  0  0  0  0  0  0  0  0  0
    8.3817   -9.0078    0.0000 C   0  0  0  0  0  0  0  0  0  0  0  0
    9.8083   -8.5442    0.0000 C   0  0  0  0  0  0  0  0  0  0  0  0
    9.8083   -7.0442    0.0000 C   0  0  0  0  0  0  0  0  0  0  0  0
    8.3817   -6.5807    0.0000 C   0  0  0  0  0  0  0  0  0  0  0  0
    7.9182   -5.1541    0.0000 C   0  0  0  0  0  0  0  0  0  0  0  0
    6.4509   -4.8423    0.0000 O   0  0  0  0  0  0  0  0  0  0  0  0
    8.9218   -4.0394    0.0000 N   0  0  0  0  0  0  0  0  0  0  0  0
    8.4583   -2.6128    0.0000 C   0  0  0  0  0  0  0  0  0  0  0  0
    9.4620   -1.4981    0.0000 C   0  0  0  0  0  0  0  0  0  0  0  0
    8.9985   -0.0715    0.0000 C   0  0  0  0  0  0  0  0  0  0  0  0
    8.5350    1.3551    0.0000 C   0  0  0  0  0  0  0  0  0  0  0  0
    6.9911   -2.3009    0.0000 C   0  0  0  0  0  0  0  0  0  0  0  0
    5.9874   -3.4157    0.0000 O   0  0  0  0  0  0  0  0  0  0  0  0
    6.5276   -0.8744    0.0000 O   0  0  0  0  0  0  0  0  0  0  0  0
  1  2  1  0
  1  3  1  0
  3  4  1  1
  4  5  1  0
  5  6  2  0
  6  7  1  0
  7  8  2  0
  8  9  1  0
  9 10  2  0
  3 11  1  0
 11 12  2  0
 11 13  1  0
 13 14  1  0
 14 15  1  1
 15 16  1  0
 16 17  1  0
 16 18  1  0
 14 19  1  0
 19 20  2  0
 19 21  1  0
 21 22  1  0
 22 23  1  1
 23 24  1  0
 24 25  1  0
 24 26  1  0
 22 27  1  0
 27 28  2  0
 27 29  1  0
 29 30  1  0
 30 31  1  0
 31 32  1  0
 32 33  1  0
 33 34  1  6
 34 35  2  0
 34 36  1  0
 36 37  1  0
 37 38  1  6
 38 39  1  0
 39 40  3  0
 37 41  1  0
 41 42  2  0
 41 43  1  0
 10  5  1  0
 33 29  1  0
M  END
$$$$

     RDKit          2D

 43 44  0  0  0  0  0  0  0  0999 V2000
   -0.7500   -3.8971    0.0000 N   0  0  0  0  0  0  0  0  0  0  0  0
   -1.5000   -5.1962    0.0000 C   0  0  0  0  0  0  0  0  0  0  0  0
    0.7500   -3.8971    0.0000 C   0  0  0  0  0  0  0  0  0  0  0  0
    1.5000   -2.5981    0.0000 C   0  0  0  0  0  0  0  0  0  0  0  0
    0.7500   -1.2990    0.0000 C   0  0  0  0  0  0  0  0  0  0  0  0
    1.5000    0.0000    0.0000 C   0  0  0  0  0  0  0  0  0  0  0  0
    0.7500    1.2990    0.0000 C   0  0  0  0  0  0  0  0  0  0  0  0
   -0.7500    1.2990    0.0000 C   0  0  0  0  0  0  0  0  0  0  0  0
   -1.5000    0.0000    0.0000 C   0  0  0  0  0  0  0  0  0  0  0  0
   -0.7500   -1.2990    0.0000 C   0  0  0  0  0  0  0  0  0  0  0  0
    1.5000   -5.1962    0.0000 C   0  0  0  0  0  0  0  0  0  0  0  0
    3.0000   -5.1962    0.0000 O   0  0  0  0  0  0  0  0  0  0  0  0
    0.7500   -6.4952    0.0000 N   0  0  0  0  0  0  0  0  0  0  0  0
    1.5000   -7.7942    0.0000 C   0  0  0  0  0  0  0  0  0  0  0  0
    0.7500   -9.0933    0.0000 C   0  0  0  0  0  0  0  0  0  0  0  0
    1.5000  -10.3923    0.0000 C   0  0  0  0  0  0  0  0  0  0  0  0
    0.7500  -11.6913    0.0000 C   0  0  0  0  0  0  0  0  0  0  0  0
    3.0000  -10.3923    0.0000 C   0  0  0  0  0  0  0  0  0  0  0  0
    3.0000   -7.7942    0.0000 C   0  0  0  0  0  0  0  0  0  0  0  0
    3.7500   -6.4952    0.0000 O   0  0  0  0  0  0  0  0  0  0  0  0
    3.7500   -9.0933    0.0000 N   0  0  0  0  0  0  0  0  0  0  0  0
    5.2500   -9.0933    0.0000 C   0  0  0  0  0  0  0  0  0  0  0  0
    6.0000  -10.3923    0.0000 C   0  0  0  0  0  0  0  0  0  0  0  0
    5.2500  -11.6913    0.0000 C   0  0  0  0  0  0  0  0  0  0  0  0
    6.0000  -12.9904    0.0000 C   0  0  0  0  0  0  0  0  0  0  0  0
    3.7500  -11.6913    0.0000 C   0  0  0  0  0  0  0  0  0  0  0  0
    6.0000   -7.7942    0.0000 C   0  0  0  0  0  0  0  0  0  0  0  0
    5.2500   -6.4952    0.0000 O   0  0  0  0  0  0  0  0  0  0  0  0
    7.5000   -7.7942    0.0000 N   0  0  0  0  0  0  0  0  0  0  0  0
    8.3817   -9.0078    0.0000 C   0  0  0  0  0  0  0  0  0  0  0  0
    9.8083   -8.5442    0.0000 C   0  0  0  0  0  0  0  0  0  0  0  0
    9.8083   -7.0442    0.0000 C   0  0  0  0  0  0  0  0  0  0  0  0
    8.3817   -6.5807    0.0000 C   0  0  0  0  0  0  0  0  0  0  0  0
    7.9182   -5.1541    0.0000 C   0  0  0  0  0  0  0  0  0  0  0  0
    6.4509   -4.8423    0.0000 O   0  0  0  0  0  0  0  0  0  0  0  0
    8.9218   -4.0394    0.0000 N   0  0  0  0  0  0  0  0  0  0  0  0
    8.4583   -2.6128    0.0000 C   0  0  0  0  0  0  0  0  0  0  0  0
    9.4620   -1.4981    0.0000 C   0  0  0  0  0  0  0  0  0  0  0  0
    8.9985   -0.0715    0.0000 C   0  0  0  0  0  0  0  0  0  0  0  0
    8.5350    1.3551    0.0000 C   0  0  0  0  0  0  0  0  0  0  0  0
    6.9911   -2.3009    0.0000 C   0  0  0  0  0  0  0  0  0  0  0  0
    5.9874   -3.4157    0.0000 O   0  0  0  0  0  0  0  0  0  0  0  0
    6.5276   -0.8744    0.0000 O   0  0  0  0  0  0  0  0  0  0  0  0
  1  2  1  0
  1  3  1  0
  3  4  1  6
  4  5  1  0
  5  6  2  0
  6  7  1  0
  7  8  2  0
  8  9  1  0
  9 10  2  0
  3 11  1  0
 11 12  2  0
 11 13  1  0
 13 14  1  0
 14 15  1  1
 15 16  1  0
 16 17  1  0
 16 18  1  0
 14 19  1  0
 19 20  2  0
 19 21  1  0
 21 22  1  0
 22 23  1  1
 23 24  1  0
 24 25  1  0
 24 26  1  0
 22 27  1  0
 27 28  2  0
 27 29  1  0
 29 30  1  0
 30 31  1  0
 31 32  1  0
 32 33  1  0
 33 34  1  6
 34 35  2  0
 34 36  1  0
 36 37  1  0
 37 38  1  6
 38 39  1  0
 39 40  3  0
 37 41  1  0
 41 42  2  0
 41 43  1  0
 10  5  1  0
 33 29  1  0
M  END
$$$$

     RDKit          2D

 38 38  0  0  0  0  0  0  0  0999 V2000
   -1.7240    5.1962    0.0000 N   0  0  0  0  0  0  0  0  0  0  0  0
   -0.9740    6.4952    0.0000 C   0  0  0  0  0  0  0  0  0  0  0  0
   -1.7240    7.7942    0.0000 C   0  0  0  0  0  0  0  0  0  0  0  0
   -0.9740    9.0933    0.0000 O   0  0  0  0  0  0  0  0  0  0  0  0
   -3.2240    7.7942    0.0000 C   0  0  0  0  0  0  0  0  0  0  0  0
    0.5260    6.4952    0.0000 C   0  0  0  0  0  0  0  0  0  0  0  0
    1.2760    7.7942    0.0000 O   0  0  0  0  0  0  0  0  0  0  0  0
    1.2760    5.1962    0.0000 N   0  0  0  0  0  0  0  0  0  0  0  0
    2.7760    5.1962    0.0000 C   0  0  0  0  0  0  0  0  0  0  0  0
    3.5260    6.4952    0.0000 C   0  0  0  0  0  0  0  0  0  0  0  0
    5.0260    6.4952    0.0000 C   0  0  0  0  0  0  0  0  0  0  0  0
    5.7760    7.7942    0.0000 C   0  0  0  0  0  0  0  0  0  0  0  0
    5.7760    5.1962    0.0000 C   0  0  0  0  0  0  0  0  0  0  0  0
    3.5260    3.8971    0.0000 C   0  0  0  0  0  0  0  0  0  0  0  0
    5.0260    3.8971    0.0000 O   0  0  0  0  0  0  0  0  0  0  0  0
    2.7760    2.5981    0.0000 N   0  0  0  0  0  0  0  0  0  0  0  0
    3.5260    1.2990    0.0000 C   0  0  0  0  0  0  0  0  0  0  0  0
    5.0260    1.2990    0.0000 C   0  0  0  0  0  0  0  0  0  0  0  0
    5.7760    0.0000    0.0000 C   0  0  0  0  0  0  0  0  0  0  0  0
    7.2760    0.0000    0.0000 C   0  0  0  0  0  0  0  0  0  0  0  0
    5.0260   -1.2990    0.0000 C   0  0  0  0  0  0  0  0  0  0  0  0
    2.7760    0.0000    0.0000 C   0  0  0  0  0  0  0  0  0  0  0  0
    3.5260   -1.2990    0.0000 O   0  0  0  0  0  0  0  0  0  0  0  0
    1.2760    0.0000    0.0000 N   0  0  0  0  0  0  0  0  0  0  0  0
    0.3943    1.2135    0.0000 C   0  0  0  0  0  0  0  0  0  0  0  0
   -1.0323    0.7500    0.0000 C   0  0  0  0  0  0  0  0  0  0  0  0
   -1.0323   -0.7500    0.0000 C   0  0  0  0  0  0  0  0  0  0  0  0
    0.3943   -1.2135    0.0000 C   0  0  0  0  0  0  0  0  0  0  0  0
    0.8578   -2.6401    0.0000 C   0  0  0  0  0  0  0  0  0  0  0  0
    2.3250   -2.9520    0.0000 O   0  0  0  0  0  0  0  0  0  0  0  0
   -0.1459   -3.7548    0.0000 N   0  0  0  0  0  0  0  0  0  0  0  0
    0.3177   -5.1814    0.0000 C   0  0  0  0  0  0  0  0  0  0  0  0
   -0.6860   -6.2961    0.0000 C   0  0  0  0  0  0  0  0  0  0  0  0
   -0.2225   -7.7227    0.0000 C   0  0  0  0  0  0  0  0  0  0  0  0
    0.2410   -9.1493    0.0000 C   0  0  0  0  0  0  0  0  0  0  0  0
    1.7849   -5.4933    0.0000 C   0  0  0  0  0  0  0  0  0  0  0  0
    2.7886   -4.3786    0.0000 O   0  0  0  0  0  0  0  0  0  0  0  0
    2.2484   -6.9199    0.0000 O   0  0  0  0  0  0  0  0  0  0  0  0
  2  1  1  1
  2  3  1  0
  3  4  1  0
  3  5  1  1
  2  6  1  0
  6  7  2  0
  6  8  1  0
  8  9  1  0
  9 10  1  6
 10 11  1  0
 11 12  1  0
 11 13  1  0
  9 14  1  0
 14 15  2  0
 14 16  1  0
 16 17  1  0
 17 18  1  6
 18 19  1  0
 19 20  1  0
 19 21  1  0
 17 22  1  0
 22 23  2  0
 22 24  1  0
 24 25  1  0
 25 26  1  0
 26 27  1  0
 27 28  1  0
 28 29  1  6
 29 30  2  0
 29 31  1  0
 31 32  1  0
 32 33  1  6
 33 34  1  0
 34 35  3  0
 32 36  1  0
 36 37  2  0
 36 38  1  0
 28 24  1  0
M  END
$$$$

     RDKit          2D

 38 38  0  0  0  0  0  0  0  0999 V2000
   -1.7240    5.1962    0.0000 N   0  0  0  0  0  0  0  0  0  0  0  0
   -0.9740    6.4952    0.0000 C   0  0  0  0  0  0  0  0  0  0  0  0
   -1.7240    7.7942    0.0000 C   0  0  0  0  0  0  0  0  0  0  0  0
   -0.9740    9.0933    0.0000 O   0  0  0  0  0  0  0  0  0  0  0  0
   -3.2240    7.7942    0.0000 C   0  0  0  0  0  0  0  0  0  0  0  0
    0.5260    6.4952    0.0000 C   0  0  0  0  0  0  0  0  0  0  0  0
    1.2760    7.7942    0.0000 O   0  0  0  0  0  0  0  0  0  0  0  0
    1.2760    5.1962    0.0000 N   0  0  0  0  0  0  0  0  0  0  0  0
    2.7760    5.1962    0.0000 C   0  0  0  0  0  0  0  0  0  0  0  0
    3.5260    6.4952    0.0000 C   0  0  0  0  0  0  0  0  0  0  0  0
    5.0260    6.4952    0.0000 C   0  0  0  0  0  0  0  0  0  0  0  0
    5.7760    7.7942    0.0000 C   0  0  0  0  0  0  0  0  0  0  0  0
    5.7760    5.1962    0.0000 C   0  0  0  0  0  0  0  0  0  0  0  0
    3.5260    3.8971    0.0000 C   0  0  0  0  0  0  0  0  0  0  0  0
    5.0260    3.8971    0.0000 O   0  0  0  0  0  0  0  0  0  0  0  0
    2.7760    2.5981    0.0000 N   0  0  0  0  0  0  0  0  0  0  0  0
    3.5260    1.2990    0.0000 C   0  0  0  0  0  0  0  0  0  0  0  0
    5.0260    1.2990    0.0000 C   0  0  0  0  0  0  0  0  0  0  0  0
    5.7760    0.0000    0.0000 C   0  0  0  0  0  0  0  0  0  0  0  0
    7.2760    0.0000    0.0000 C   0  0  0  0  0  0  0  0  0  0  0  0
    5.0260   -1.2990    0.0000 C   0  0  0  0  0  0  0  0  0  0  0  0
    2.7760    0.0000    0.0000 C   0  0  0  0  0  0  0  0  0  0  0  0
    3.5260   -1.2990    0.0000 O   0  0  0  0  0  0  0  0  0  0  0  0
    1.2760    0.0000    0.0000 N   0  0  0  0  0  0  0  0  0  0  0  0
    0.3943    1.2135    0.0000 C   0  0  0  0  0  0  0  0  0  0  0  0
   -1.0323    0.7500    0.0000 C   0  0  0  0  0  0  0  0  0  0  0  0
   -1.0323   -0.7500    0.0000 C   0  0  0  0  0  0  0  0  0  0  0  0
    0.3943   -1.2135    0.0000 C   0  0  0  0  0  0  0  0  0  0  0  0
    0.8578   -2.6401    0.0000 C   0  0  0  0  0  0  0  0  0  0  0  0
    2.3250   -2.9520    0.0000 O   0  0  0  0  0  0  0  0  0  0  0  0
   -0.1459   -3.7548    0.0000 N   0  0  0  0  0  0  0  0  0  0  0  0
    0.3177   -5.1814    0.0000 C   0  0  0  0  0  0  0  0  0  0  0  0
   -0.6860   -6.2961    0.0000 C   0  0  0  0  0  0  0  0  0  0  0  0
   -0.2225   -7.7227    0.0000 C   0  0  0  0  0  0  0  0  0  0  0  0
    0.2410   -9.1493    0.0000 C   0  0  0  0  0  0  0  0  0  0  0  0
    1.7849   -5.4933    0.0000 C   0  0  0  0  0  0  0  0  0  0  0  0
    2.7886   -4.3786    0.0000 O   0  0  0  0  0  0  0  0  0  0  0  0
    2.2484   -6.9199    0.0000 O   0  0  0  0  0  0  0  0  0  0  0  0
  2  1  1  6
  2  3  1  0
  3  4  1  0
  3  5  1  1
  2  6  1  0
  6  7  2  0
  6  8  1  0
  8  9  1  0
  9 10  1  6
 10 11  1  0
 11 12  1  0
 11 13  1  0
  9 14  1  0
 14 15  2  0
 14 16  1  0
 16 17  1  0
 17 18  1  6
 18 19  1  0
 19 20  1  0
 19 21  1  0
 17 22  1  0
 22 23  2  0
 22 24  1  0
 24 25  1  0
 25 26  1  0
 26 27  1  0
 27 28  1  0
 28 29  1  6
 29 30  2  0
 29 31  1  0
 31 32  1  0
 32 33  1  6
 33 34  1  0
 34 35  3  0
 32 36  1  0
 36 37  2  0
 36 38  1  0
 28 24  1  0
M  END
$$$$

     RDKit          2D

 39 39  0  0  0  0  0  0  0  0999 V2000
   -1.7240    5.1962    0.0000 N   0  0  0  0  0  0  0  0  0  0  0  0
   -3.2240    5.1962    0.0000 C   0  0  0  0  0  0  0  0  0  0  0  0
   -0.9740    6.4952    0.0000 C   0  0  0  0  0  0  0  0  0  0  0  0
   -1.7240    7.7942    0.0000 C   0  0  0  0  0  0  0  0  0  0  0  0
   -0.9740    9.0933    0.0000 O   0  0  0  0  0  0  0  0  0  0  0  0
   -3.2240    7.7942    0.0000 C   0  0  0  0  0  0  0  0  0  0  0  0
    0.5260    6.4952    0.0000 C   0  0  0  0  0  0  0  0  0  0  0  0
    1.2760    7.7942    0.0000 O   0  0  0  0  0  0  0  0  0  0  0  0
    1.2760    5.1962    0.0000 N   0  0  0  0  0  0  0  0  0  0  0  0
    2.7760    5.1962    0.0000 C   0  0  0  0  0  0  0  0  0  0  0  0
    3.5260    6.4952    0.0000 C   0  0  0  0  0  0  0  0  0  0  0  0
    5.0260    6.4952    0.0000 C   0  0  0  0  0  0  0  0  0  0  0  0
    5.7760    7.7942    0.0000 C   0  0  0  0  0  0  0  0  0  0  0  0
    5.7760    5.1962    0.0000 C   0  0  0  0  0  0  0  0  0  0  0  0
    3.5260    3.8971    0.0000 C   0  0  0  0  0  0  0  0  0  0  0  0
    5.0260    3.8971    0.0000 O   0  0  0  0  0  0  0  0  0  0  0  0
    2.7760    2.5981    0.0000 N   0  0  0  0  0  0  0  0  0  0  0  0
    3.5260    1.2990    0.0000 C   0  0  0  0  0  0  0  0  0  0  0  0
    5.0260    1.2990    0.0000 C   0  0  0  0  0  0  0  0  0  0  0  0
    5.7760    0.0000    0.0000 C   0  0  0  0  0  0  0  0  0  0  0  0
    5.0260   -1.2990    0.0000 C   0  0  0  0  0  0  0  0  0  0  0  0
    7.2760    0.0000    0.0000 C   0  0  0  0  0  0  0  0  0  0  0  0
    2.7760    0.0000    0.0000 C   0  0  0  0  0  0  0  0  0  0  0  0
    3.5260   -1.2990    0.0000 O   0  0  0  0  0  0  0  0  0  0  0  0
    1.2760    0.0000    0.0000 N   0  0  0  0  0  0  0  0  0  0  0  0
    0.3943    1.2135    0.0000 C   0  0  0  0  0  0  0  0  0  0  0  0
   -1.0323    0.7500    0.0000 C   0  0  0  0  0  0  0  0  0  0  0  0
   -1.0323   -0.7500    0.0000 C   0  0  0  0  0  0  0  0  0  0  0  0
    0.3943   -1.2135    0.0000 C   0  0  0  0  0  0  0  0  0  0  0  0
    0.8578   -2.6401    0.0000 C   0  0  0  0  0  0  0  0  0  0  0  0
    2.3250   -2.9520    0.0000 O   0  0  0  0  0  0  0  0  0  0  0  0
   -0.1459   -3.7548    0.0000 N   0  0  0  0  0  0  0  0  0  0  0  0
    0.3177   -5.1814    0.0000 C   0  0  0  0  0  0  0  0  0  0  0  0
   -0.6860   -6.2961    0.0000 C   0  0  0  0  0  0  0  0  0  0  0  0
   -0.2225   -7.7227    0.0000 C   0  0  0  0  0  0  0  0  0  0  0  0
    0.2410   -9.1493    0.0000 C   0  0  0  0  0  0  0  0  0  0  0  0
    1.7849   -5.4933    0.0000 C   0  0  0  0  0  0  0  0  0  0  0  0
    2.7886   -4.3786    0.0000 O   0  0  0  0  0  0  0  0  0  0  0  0
    2.2484   -6.9199    0.0000 O   0  0  0  0  0  0  0  0  0  0  0  0
  1  2  1  0
  3  1  1  1
  3  4  1  0
  4  5  1  0
  4  6  1  1
  3  7  1  0
  7  8  2  0
  7  9  1  0
  9 10  1  0
 10 11  1  6
 11 12  1  0
 12 13  1  0
 12 14  1  0
 10 15  1  0
 15 16  2  0
 15 17  1  0
 17 18  1  0
 18 19  1  6
 19 20  1  0
 20 21  1  0
 20 22  1  0
 18 23  1  0
 23 24  2  0
 23 25  1  0
 25 26  1  0
 26 27  1  0
 27 28  1  0
 28 29  1  0
 29 30  1  6
 30 31  2  0
 30 32  1  0
 32 33  1  0
 33 34  1  6
 34 35  1  0
 35 36  3  0
 33 37  1  0
 37 38  2  0
 37 39  1  0
 29 25  1  0
M  END
$$$$

     RDKit          2D

 39 39  0  0  0  0  0  0  0  0999 V2000
   -1.7240    5.1962    0.0000 N   0  0  0  0  0  0  0  0  0  0  0  0
   -3.2240    5.1962    0.0000 C   0  0  0  0  0  0  0  0  0  0  0  0
   -0.9740    6.4952    0.0000 C   0  0  0  0  0  0  0  0  0  0  0  0
   -1.7240    7.7942    0.0000 C   0  0  0  0  0  0  0  0  0  0  0  0
   -0.9740    9.0933    0.0000 O   0  0  0  0  0  0  0  0  0  0  0  0
   -3.2240    7.7942    0.0000 C   0  0  0  0  0  0  0  0  0  0  0  0
    0.5260    6.4952    0.0000 C   0  0  0  0  0  0  0  0  0  0  0  0
    1.2760    7.7942    0.0000 O   0  0  0  0  0  0  0  0  0  0  0  0
    1.2760    5.1962    0.0000 N   0  0  0  0  0  0  0  0  0  0  0  0
    2.7760    5.1962    0.0000 C   0  0  0  0  0  0  0  0  0  0  0  0
    3.5260    6.4952    0.0000 C   0  0  0  0  0  0  0  0  0  0  0  0
    5.0260    6.4952    0.0000 C   0  0  0  0  0  0  0  0  0  0  0  0
    5.7760    7.7942    0.0000 C   0  0  0  0  0  0  0  0  0  0  0  0
    5.7760    5.1962    0.0000 C   0  0  0  0  0  0  0  0  0  0  0  0
    3.5260    3.8971    0.0000 C   0  0  0  0  0  0  0  0  0  0  0  0
    5.0260    3.8971    0.0000 O   0  0  0  0  0  0  0  0  0  0  0  0
    2.7760    2.5981    0.0000 N   0  0  0  0  0  0  0  0  0  0  0  0
    3.5260    1.2990    0.0000 C   0  0  0  0  0  0  0  0  0  0  0  0
    5.0260    1.2990    0.0000 C   0  0  0  0  0  0  0  0  0  0  0  0
    5.7760    0.0000    0.0000 C   0  0  0  0  0  0  0  0  0  0  0  0
    5.0260   -1.2990    0.0000 C   0  0  0  0  0  0  0  0  0  0  0  0
    7.2760    0.0000    0.0000 C   0  0  0  0  0  0  0  0  0  0  0  0
    2.7760    0.0000    0.0000 C   0  0  0  0  0  0  0  0  0  0  0  0
    3.5260   -1.2990    0.0000 O   0  0  0  0  0  0  0  0  0  0  0  0
    1.2760    0.0000    0.0000 N   0  0  0  0  0  0  0  0  0  0  0  0
    0.3943    1.2135    0.0000 C   0  0  0  0  0  0  0  0  0  0  0  0
   -1.0323    0.7500    0.0000 C   0  0  0  0  0  0  0  0  0  0  0  0
   -1.0323   -0.7500    0.0000 C   0  0  0  0  0  0  0  0  0  0  0  0
    0.3943   -1.2135    0.0000 C   0  0  0  0  0  0  0  0  0  0  0  0
    0.8578   -2.6401    0.0000 C   0  0  0  0  0  0  0  0  0  0  0  0
    2.3250   -2.9520    0.0000 O   0  0  0  0  0  0  0  0  0  0  0  0
   -0.1459   -3.7548    0.0000 N   0  0  0  0  0  0  0  0  0  0  0  0
    0.3177   -5.1814    0.0000 C   0  0  0  0  0  0  0  0  0  0  0  0
   -0.6860   -6.2961    0.0000 C   0  0  0  0  0  0  0  0  0  0  0  0
   -0.2225   -7.7227    0.0000 C   0  0  0  0  0  0  0  0  0  0  0  0
    0.2410   -9.1493    0.0000 C   0  0  0  0  0  0  0  0  0  0  0  0
    1.7849   -5.4933    0.0000 C   0  0  0  0  0  0  0  0  0  0  0  0
    2.7886   -4.3786    0.0000 O   0  0  0  0  0  0  0  0  0  0  0  0
    2.2484   -6.9199    0.0000 O   0  0  0  0  0  0  0  0  0  0  0  0
  1  2  1  0
  3  1  1  6
  3  4  1  0
  4  5  1  0
  4  6  1  1
  3  7  1  0
  7  8  2  0
  7  9  1  0
  9 10  1  0
 10 11  1  6
 11 12  1  0
 12 13  1  0
 12 14  1  0
 10 15  1  0
 15 16  2  0
 15 17  1  0
 17 18  1  0
 18 19  1  6
 19 20  1  0
 20 21  1  0
 20 22  1  0
 18 23  1  0
 23 24  2  0
 23 25  1  0
 25 26  1  0
 26 27  1  0
 27 28  1  0
 28 29  1  0
 29 30  1  6
 30 31  2  0
 30 32  1  0
 32 33  1  0
 33 34  1  6
 34 35  1  0
 35 36  3  0
 33 37  1  0
 37 38  2  0
 37 39  1  0
 29 25  1  0
M  END
$$$$

     RDKit          2D

 39 39  0  0  0  0  0  0  0  0999 V2000
   -1.7240    7.7942    0.0000 N   0  0  0  0  0  0  0  0  0  0  0  0
   -3.2240    7.7942    0.0000 C   0  0  0  0  0  0  0  0  0  0  0  0
   -3.9740    9.0933    0.0000 C   0  0  0  0  0  0  0  0  0  0  0  0
   -5.4740    9.0933    0.0000 C   0  0  0  0  0  0  0  0  0  0  0  0
   -3.2240   10.3923    0.0000 C   0  0  0  0  0  0  0  0  0  0  0  0
   -0.9740    6.4952    0.0000 C   0  0  0  0  0  0  0  0  0  0  0  0
    0.5260    6.4952    0.0000 C   0  0  0  0  0  0  0  0  0  0  0  0
    1.2760    7.7942    0.0000 O   0  0  0  0  0  0  0  0  0  0  0  0
    1.2760    5.1962    0.0000 N   0  0  0  0  0  0  0  0  0  0  0  0
    2.7760    5.1962    0.0000 C   0  0  0  0  0  0  0  0  0  0  0  0
    3.5260    6.4952    0.0000 C   0  0  0  0  0  0  0  0  0  0  0  0
    5.0260    6.4952    0.0000 C   0  0  0  0  0  0  0  0  0  0  0  0
    5.7760    7.7942    0.0000 C   0  0  0  0  0  0  0  0  0  0  0  0
    5.7760    5.1962    0.0000 C   0  0  0  0  0  0  0  0  0  0  0  0
    3.5260    3.8971    0.0000 C   0  0  0  0  0  0  0  0  0  0  0  0
    5.0260    3.8971    0.0000 O   0  0  0  0  0  0  0  0  0  0  0  0
    2.7760    2.5981    0.0000 N   0  0  0  0  0  0  0  0  0  0  0  0
    3.5260    1.2990    0.0000 C   0  0  0  0  0  0  0  0  0  0  0  0
    5.0260    1.2990    0.0000 C   0  0  0  0  0  0  0  0  0  0  0  0
    5.7760    0.0000    0.0000 C   0  0  0  0  0  0  0  0  0  0  0  0
    7.2760    0.0000    0.0000 C   0  0  0  0  0  0  0  0  0  0  0  0
    5.0260   -1.2990    0.0000 C   0  0  0  0  0  0  0  0  0  0  0  0
    2.7760    0.0000    0.0000 C   0  0  0  0  0  0  0  0  0  0  0  0
    3.5260   -1.2990    0.0000 O   0  0  0  0  0  0  0  0  0  0  0  0
    1.2760    0.0000    0.0000 N   0  0  0  0  0  0  0  0  0  0  0  0
    0.3943    1.2135    0.0000 C   0  0  0  0  0  0  0  0  0  0  0  0
   -1.0323    0.7500    0.0000 C   0  0  0  0  0  0  0  0  0  0  0  0
   -1.0323   -0.7500    0.0000 C   0  0  0  0  0  0  0  0  0  0  0  0
    0.3943   -1.2135    0.0000 C   0  0  0  0  0  0  0  0  0  0  0  0
    0.8578   -2.6401    0.0000 C   0  0  0  0  0  0  0  0  0  0  0  0
    2.3250   -2.9520    0.0000 O   0  0  0  0  0  0  0  0  0  0  0  0
   -0.1459   -3.7548    0.0000 N   0  0  0  0  0  0  0  0  0  0  0  0
    0.3177   -5.1814    0.0000 C   0  0  0  0  0  0  0  0  0  0  0  0
   -0.6860   -6.2961    0.0000 C   0  0  0  0  0  0  0  0  0  0  0  0
   -0.2225   -7.7227    0.0000 C   0  0  0  0  0  0  0  0  0  0  0  0
    0.2410   -9.1493    0.0000 C   0  0  0  0  0  0  0  0  0  0  0  0
    1.7849   -5.4933    0.0000 C   0  0  0  0  0  0  0  0  0  0  0  0
    2.7886   -4.3786    0.0000 O   0  0  0  0  0  0  0  0  0  0  0  0
    2.2484   -6.9199    0.0000 O   0  0  0  0  0  0  0  0  0  0  0  0
  1  2  1  0
  2  3  1  0
  3  4  1  0
  3  5  1  0
  1  6  1  0
  6  7  1  0
  7  8  2  0
  7  9  1  0
  9 10  1  0
 10 11  1  6
 11 12  1  0
 12 13  1  0
 12 14  1  0
 10 15  1  0
 15 16  2  0
 15 17  1  0
 17 18  1  0
 18 19  1  6
 19 20  1  0
 20 21  1  0
 20 22  1  0
 18 23  1  0
 23 24  2  0
 23 25  1  0
 25 26  1  0
 26 27  1  0
 27 28  1  0
 28 29  1  0
 29 30  1  6
 30 31  2  0
 30 32  1  0
 32 33  1  0
 33 34  1  6
 34 35  1  0
 35 36  3  0
 33 37  1  0
 37 38  2  0
 37 39  1  0
 29 25  1  0
M  END
$$$$

     RDKit          2D

 42 42  0  0  0  0  0  0  0  0999 V2000
   -1.7240    7.7942    0.0000 N   0  0  0  0  0  0  0  0  0  0  0  0
   -3.2240    7.7942    0.0000 C   0  0  0  0  0  0  0  0  0  0  0  0
   -3.9740    9.0933    0.0000 C   0  0  0  0  0  0  0  0  0  0  0  0
   -5.4740    9.0933    0.0000 C   0  0  0  0  0  0  0  0  0  0  0  0
   -6.2240   10.3923    0.0000 O   0  0  0  0  0  0  0  0  0  0  0  0
   -7.7240   10.3923    0.0000 C   0  0  0  0  0  0  0  0  0  0  0  0
   -8.4740   11.6913    0.0000 C   0  0  0  0  0  0  0  0  0  0  0  0
   -8.4740    9.0933    0.0000 C   0  0  0  0  0  0  0  0  0  0  0  0
   -0.9740    6.4952    0.0000 C   0  0  0  0  0  0  0  0  0  0  0  0
    0.5260    6.4952    0.0000 C   0  0  0  0  0  0  0  0  0  0  0  0
    1.2760    7.7942    0.0000 O   0  0  0  0  0  0  0  0  0  0  0  0
    1.2760    5.1962    0.0000 N   0  0  0  0  0  0  0  0  0  0  0  0
    2.7760    5.1962    0.0000 C   0  0  0  0  0  0  0  0  0  0  0  0
    3.5260    6.4952    0.0000 C   0  0  0  0  0  0  0  0  0  0  0  0
    5.0260    6.4952    0.0000 C   0  0  0  0  0  0  0  0  0  0  0  0
    5.7760    7.7942    0.0000 C   0  0  0  0  0  0  0  0  0  0  0  0
    5.7760    5.1962    0.0000 C   0  0  0  0  0  0  0  0  0  0  0  0
    3.5260    3.8971    0.0000 C   0  0  0  0  0  0  0  0  0  0  0  0
    5.0260    3.8971    0.0000 O   0  0  0  0  0  0  0  0  0  0  0  0
    2.7760    2.5981    0.0000 N   0  0  0  0  0  0  0  0  0  0  0  0
    3.5260    1.2990    0.0000 C   0  0  0  0  0  0  0  0  0  0  0  0
    5.0260    1.2990    0.0000 C   0  0  0  0  0  0  0  0  0  0  0  0
    5.7760    0.0000    0.0000 C   0  0  0  0  0  0  0  0  0  0  0  0
    7.2760    0.0000    0.0000 C   0  0  0  0  0  0  0  0  0  0  0  0
    5.0260   -1.2990    0.0000 C   0  0  0  0  0  0  0  0  0  0  0  0
    2.7760    0.0000    0.0000 C   0  0  0  0  0  0  0  0  0  0  0  0
    3.5260   -1.2990    0.0000 O   0  0  0  0  0  0  0  0  0  0  0  0
    1.2760    0.0000    0.0000 N   0  0  0  0  0  0  0  0  0  0  0  0
    0.3943    1.2135    0.0000 C   0  0  0  0  0  0  0  0  0  0  0  0
   -1.0323    0.7500    0.0000 C   0  0  0  0  0  0  0  0  0  0  0  0
   -1.0323   -0.7500    0.0000 C   0  0  0  0  0  0  0  0  0  0  0  0
    0.3943   -1.2135    0.0000 C   0  0  0  0  0  0  0  0  0  0  0  0
    0.8578   -2.6401    0.0000 C   0  0  0  0  0  0  0  0  0  0  0  0
    2.3250   -2.9520    0.0000 O   0  0  0  0  0  0  0  0  0  0  0  0
   -0.1459   -3.7548    0.0000 N   0  0  0  0  0  0  0  0  0  0  0  0
    0.3177   -5.1814    0.0000 C   0  0  0  0  0  0  0  0  0  0  0  0
   -0.6860   -6.2961    0.0000 C   0  0  0  0  0  0  0  0  0  0  0  0
   -0.2225   -7.7227    0.0000 C   0  0  0  0  0  0  0  0  0  0  0  0
    0.2410   -9.1493    0.0000 C   0  0  0  0  0  0  0  0  0  0  0  0
    1.7849   -5.4933    0.0000 C   0  0  0  0  0  0  0  0  0  0  0  0
    2.7886   -4.3786    0.0000 O   0  0  0  0  0  0  0  0  0  0  0  0
    2.2484   -6.9199    0.0000 O   0  0  0  0  0  0  0  0  0  0  0  0
  1  2  1  0
  2  3  1  0
  3  4  1  0
  4  5  1  0
  5  6  1  0
  6  7  1  0
  6  8  1  0
  1  9  1  0
  9 10  1  0
 10 11  2  0
 10 12  1  0
 12 13  1  0
 13 14  1  6
 14 15  1  0
 15 16  1  0
 15 17  1  0
 13 18  1  0
 18 19  2  0
 18 20  1  0
 20 21  1  0
 21 22  1  6
 22 23  1  0
 23 24  1  0
 23 25  1  0
 21 26  1  0
 26 27  2  0
 26 28  1  0
 28 29  1  0
 29 30  1  0
 30 31  1  0
 31 32  1  0
 32 33  1  6
 33 34  2  0
 33 35  1  0
 35 36  1  0
 36 37  1  6
 37 38  1  0
 38 39  3  0
 36 40  1  0
 40 41  2  0
 40 42  1  0
 32 28  1  0
M  END
$$$$

     RDKit          2D

 44 45  0  0  0  0  0  0  0  0999 V2000
    0.7500   -6.4952    0.0000 N   0  0  0  0  0  0  0  0  0  0  0  0
    1.5000   -5.1962    0.0000 C   0  0  0  0  0  0  0  0  0  0  0  0
    0.7500   -3.8971    0.0000 C   0  0  0  0  0  0  0  0  0  0  0  0
    1.5000   -2.5981    0.0000 O   0  0  0  0  0  0  0  0  0  0  0  0
    0.7500   -1.2990    0.0000 C   0  0  0  0  0  0  0  0  0  0  0  0
    1.5000    0.0000    0.0000 C   0  0  0  0  0  0  0  0  0  0  0  0
    0.7500    1.2990    0.0000 C   0  0  0  0  0  0  0  0  0  0  0  0
   -0.7500    1.2990    0.0000 C   0  0  0  0  0  0  0  0  0  0  0  0
   -1.5000    0.0000    0.0000 C   0  0  0  0  0  0  0  0  0  0  0  0
   -0.7500   -1.2990    0.0000 C   0  0  0  0  0  0  0  0  0  0  0  0
    1.5000   -7.7942    0.0000 C   0  0  0  0  0  0  0  0  0  0  0  0
    0.7500   -9.0933    0.0000 C   0  0  0  0  0  0  0  0  0  0  0  0
   -0.7500   -9.0933    0.0000 O   0  0  0  0  0  0  0  0  0  0  0  0
    1.5000  -10.3923    0.0000 N   0  0  0  0  0  0  0  0  0  0  0  0
    0.7500  -11.6913    0.0000 C   0  0  0  0  0  0  0  0  0  0  0  0
    1.5000  -12.9904    0.0000 C   0  0  0  0  0  0  0  0  0  0  0  0
    0.7500  -14.2894    0.0000 C   0  0  0  0  0  0  0  0  0  0  0  0
    1.5000  -15.5885    0.0000 C   0  0  0  0  0  0  0  0  0  0  0  0
   -0.7500  -14.2894    0.0000 C   0  0  0  0  0  0  0  0  0  0  0  0
   -0.7500  -11.6913    0.0000 C   0  0  0  0  0  0  0  0  0  0  0  0
   -1.5000  -10.3923    0.0000 O   0  0  0  0  0  0  0  0  0  0  0  0
   -1.5000  -12.9904    0.0000 N   0  0  0  0  0  0  0  0  0  0  0  0
   -3.0000  -12.9904    0.0000 C   0  0  0  0  0  0  0  0  0  0  0  0
   -3.7500  -14.2894    0.0000 C   0  0  0  0  0  0  0  0  0  0  0  0
   -3.0000  -15.5885    0.0000 C   0  0  0  0  0  0  0  0  0  0  0  0
   -3.7500  -16.8875    0.0000 C   0  0  0  0  0  0  0  0  0  0  0  0
   -1.5000  -15.5885    0.0000 C   0  0  0  0  0  0  0  0  0  0  0  0
   -3.7500  -11.6913    0.0000 C   0  0  0  0  0  0  0  0  0  0  0  0
   -3.0000  -10.3923    0.0000 O   0  0  0  0  0  0  0  0  0  0  0  0
   -5.2500  -11.6913    0.0000 N   0  0  0  0  0  0  0  0  0  0  0  0
   -6.1317  -12.9049    0.0000 C   0  0  0  0  0  0  0  0  0  0  0  0
   -7.5583  -12.4413    0.0000 C   0  0  0  0  0  0  0  0  0  0  0  0
   -7.5583  -10.9413    0.0000 C   0  0  0  0  0  0  0  0  0  0  0  0
   -6.1317  -10.4778    0.0000 C   0  0  0  0  0  0  0  0  0  0  0  0
   -5.6682   -9.0512    0.0000 C   0  0  0  0  0  0  0  0  0  0  0  0
   -4.2009   -8.7394    0.0000 O   0  0  0  0  0  0  0  0  0  0  0  0
   -6.6718   -7.9365    0.0000 N   0  0  0  0  0  0  0  0  0  0  0  0
   -6.2083   -6.5099    0.0000 C   0  0  0  0  0  0  0  0  0  0  0  0
   -7.2120   -5.3952    0.0000 C   0  0  0  0  0  0  0  0  0  0  0  0
   -6.7485   -3.9686    0.0000 C   0  0  0  0  0  0  0  0  0  0  0  0
   -6.2850   -2.5420    0.0000 C   0  0  0  0  0  0  0  0  0  0  0  0
   -4.7411   -6.1981    0.0000 C   0  0  0  0  0  0  0  0  0  0  0  0
   -3.7374   -7.3128    0.0000 O   0  0  0  0  0  0  0  0  0  0  0  0
   -4.2776   -4.7715    0.0000 O   0  0  0  0  0  0  0  0  0  0  0  0
  1  2  1  0
  2  3  1  0
  3  4  1  0
  4  5  1  0
  5  6  2  0
  6  7  1  0
  7  8  2  0
  8  9  1  0
  9 10  2  0
  1 11  1  0
 11 12  1  0
 12 13  2  0
 12 14  1  0
 14 15  1  0
 15 16  1  6
 16 17  1  0
 17 18  1  0
 17 19  1  0
 15 20  1  0
 20 21  2  0
 20 22  1  0
 22 23  1  0
 23 24  1  6
 24 25  1  0
 25 26  1  0
 25 27  1  0
 23 28  1  0
 28 29  2  0
 28 30  1  0
 30 31  1  0
 31 32  1  0
 32 33  1  0
 33 34  1  0
 34 35  1  1
 35 36  2  0
 35 37  1  0
 37 38  1  0
 38 39  1  1
 39 40  1  0
 40 41  3  0
 38 42  1  0
 42 43  2  0
 42 44  1  0
 10  5  1  0
 34 30  1  0
M  END
$$$$

     RDKit          2D

 47 48  0  0  0  0  0  0  0  0999 V2000
    1.5000   -5.1962    0.0000 N   0  0  0  0  0  0  0  0  0  0  0  0
    0.7500   -3.8971    0.0000 C   0  0  0  0  0  0  0  0  0  0  0  0
    1.5000   -2.5981    0.0000 C   0  0  0  0  0  0  0  0  0  0  0  0
    0.7500   -1.2990    0.0000 C   0  0  0  0  0  0  0  0  0  0  0  0
    1.5000    0.0000    0.0000 C   0  0  0  0  0  0  0  0  0  0  0  0
    0.7500    1.2990    0.0000 C   0  0  0  0  0  0  0  0  0  0  0  0
   -0.7500    1.2990    0.0000 C   0  0  0  0  0  0  0  0  0  0  0  0
   -1.5000    0.0000    0.0000 C   0  0  0  0  0  0  0  0  0  0  0  0
   -3.0000    0.0000    0.0000 O   0  0  0  0  0  0  0  0  0  0  0  0
   -3.7500   -1.2990    0.0000 C   0  0  0  0  0  0  0  0  0  0  0  0
   -0.7500   -1.2990    0.0000 C   0  0  0  0  0  0  0  0  0  0  0  0
   -1.5000    2.5981    0.0000 O   0  0  0  0  0  0  0  0  0  0  0  0
   -0.7500    3.8971    0.0000 C   0  0  0  0  0  0  0  0  0  0  0  0
    0.7500   -6.4952    0.0000 C   0  0  0  0  0  0  0  0  0  0  0  0
    1.5000   -7.7942    0.0000 C   0  0  0  0  0  0  0  0  0  0  0  0
    3.0000   -7.7942    0.0000 O   0  0  0  0  0  0  0  0  0  0  0  0
    0.7500   -9.0933    0.0000 N   0  0  0  0  0  0  0  0  0  0  0  0
    1.5000  -10.3923    0.0000 C   0  0  0  0  0  0  0  0  0  0  0  0
    0.7500  -11.6913    0.0000 C   0  0  0  0  0  0  0  0  0  0  0  0
    1.5000  -12.9904    0.0000 C   0  0  0  0  0  0  0  0  0  0  0  0
    0.7500  -14.2894    0.0000 C   0  0  0  0  0  0  0  0  0  0  0  0
    3.0000  -12.9904    0.0000 C   0  0  0  0  0  0  0  0  0  0  0  0
    3.0000  -10.3923    0.0000 C   0  0  0  0  0  0  0  0  0  0  0  0
    3.7500   -9.0933    0.0000 O   0  0  0  0  0  0  0  0  0  0  0  0
    3.7500  -11.6913    0.0000 N   0  0  0  0  0  0  0  0  0  0  0  0
    5.2500  -11.6913    0.0000 C   0  0  0  0  0  0  0  0  0  0  0  0
    6.0000  -12.9904    0.0000 C   0  0  0  0  0  0  0  0  0  0  0  0
    5.2500  -14.2894    0.0000 C   0  0  0  0  0  0  0  0  0  0  0  0
    6.0000  -15.5885    0.0000 C   0  0  0  0  0  0  0  0  0  0  0  0
    3.7500  -14.2894    0.0000 C   0  0  0  0  0  0  0  0  0  0  0  0
    6.0000  -10.3923    0.0000 C   0  0  0  0  0  0  0  0  0  0  0  0
    5.2500   -9.0933    0.0000 O   0  0  0  0  0  0  0  0  0  0  0  0
    7.5000  -10.3923    0.0000 N   0  0  0  0  0  0  0  0  0  0  0  0
    8.3817  -11.6058    0.0000 C   0  0  0  0  0  0  0  0  0  0  0  0
    9.8083  -11.1423    0.0000 C   0  0  0  0  0  0  0  0  0  0  0  0
    9.8083   -9.6423    0.0000 C   0  0  0  0  0  0  0  0  0  0  0  0
    8.3817   -9.1788    0.0000 C   0  0  0  0  0  0  0  0  0  0  0  0
    7.9182   -7.7522    0.0000 C   0  0  0  0  0  0  0  0  0  0  0  0
    6.4509   -7.4403    0.0000 O   0  0  0  0  0  0  0  0  0  0  0  0
    8.9218   -6.6375    0.0000 N   0  0  0  0  0  0  0  0  0  0  0  0
    8.4583   -5.2109    0.0000 C   0  0  0  0  0  0  0  0  0  0  0  0
    9.4620   -4.0962    0.0000 C   0  0  0  0  0  0  0  0  0  0  0  0
    8.9985   -2.6696    0.0000 C   0  0  0  0  0  0  0  0  0  0  0  0
    8.5350   -1.2430    0.0000 C   0  0  0  0  0  0  0  0  0  0  0  0
    6.9911   -4.8990    0.0000 C   0  0  0  0  0  0  0  0  0  0  0  0
    5.9874   -6.0137    0.0000 O   0  0  0  0  0  0  0  0  0  0  0  0
    6.5276   -3.4724    0.0000 O   0  0  0  0  0  0  0  0  0  0  0  0
  1  2  1  0
  2  3  1  0
  3  4  1  0
  4  5  2  0
  5  6  1  0
  6  7  2  0
  7  8  1  0
  8  9  1  0
  9 10  1  0
  8 11  2  0
  7 12  1  0
 12 13  1  0
  1 14  1  0
 14 15  1  0
 15 16  2  0
 15 17  1  0
 17 18  1  0
 18 19  1  1
 19 20  1  0
 20 21  1  0
 20 22  1  0
 18 23  1  0
 23 24  2  0
 23 25  1  0
 25 26  1  0
 26 27  1  1
 27 28  1  0
 28 29  1  0
 28 30  1  0
 26 31  1  0
 31 32  2  0
 31 33  1  0
 33 34  1  0
 34 35  1  0
 35 36  1  0
 36 37  1  0
 37 38  1  6
 38 39  2  0
 38 40  1  0
 40 41  1  0
 41 42  1  6
 42 43  1  0
 43 44  3  0
 41 45  1  0
 45 46  2  0
 45 47  1  0
 11  4  1  0
 37 33  1  0
M  END
$$$$

     RDKit          2D

 54 55  0  0  0  0  0  0  0  0999 V2000
    1.2760    5.1962    0.0000 N   0  0  0  0  0  0  0  0  0  0  0  0
    2.7760    5.1962    0.0000 C   0  0  0  0  0  0  0  0  0  0  0  0
    3.5260    6.4952    0.0000 C   0  0  0  0  0  0  0  0  0  0  0  0
    2.7760    7.7942    0.0000 C   0  0  0  0  0  0  0  0  0  0  0  0
    3.5260    9.0933    0.0000 C   0  0  0  0  0  0  0  0  0  0  0  0
    1.2760    7.7942    0.0000 C   0  0  0  0  0  0  0  0  0  0  0  0
    3.5260    3.8971    0.0000 C   0  0  0  0  0  0  0  0  0  0  0  0
    5.0260    3.8971    0.0000 O   0  0  0  0  0  0  0  0  0  0  0  0
    2.7760    2.5981    0.0000 N   0  0  0  0  0  0  0  0  0  0  0  0
    3.5260    1.2990    0.0000 C   0  0  0  0  0  0  0  0  0  0  0  0
    5.0260    1.2990    0.0000 C   0  0  0  0  0  0  0  0  0  0  0  0
    5.7760    0.0000    0.0000 C   0  0  0  0  0  0  0  0  0  0  0  0
    7.2760    0.0000    0.0000 C   0  0  0  0  0  0  0  0  0  0  0  0
    5.0260   -1.2990    0.0000 C   0  0  0  0  0  0  0  0  0  0  0  0
    2.7760    0.0000    0.0000 C   0  0  0  0  0  0  0  0  0  0  0  0
    3.5260   -1.2990    0.0000 O   0  0  0  0  0  0  0  0  0  0  0  0
    1.2760    0.0000    0.0000 N   0  0  0  0  0  0  0  0  0  0  0  0
    0.3943    1.2135    0.0000 C   0  0  0  0  0  0  0  0  0  0  0  0
   -1.0323    0.7500    0.0000 C   0  0  0  0  0  0  0  0  0  0  0  0
   -1.0323   -0.7500    0.0000 C   0  0  0  0  0  0  0  0  0  0  0  0
    0.3943   -1.2135    0.0000 C   0  0  0  0  0  0  0  0  0  0  0  0
    0.8578   -2.6401    0.0000 C   0  0  0  0  0  0  0  0  0  0  0  0
    2.3250   -2.9520    0.0000 O   0  0  0  0  0  0  0  0  0  0  0  0
   -0.1459   -3.7548    0.0000 N   0  0  0  0  0  0  0  0  0  0  0  0
    0.3177   -5.1814    0.0000 C   0  0  0  0  0  0  0  0  0  0  0  0
   -0.6860   -6.2961    0.0000 C   0  0  0  0  0  0  0  0  0  0  0  0
   -0.2225   -7.7227    0.0000 C   0  0  0  0  0  0  0  0  0  0  0  0
   -1.2262   -8.8374    0.0000 C   0  0  0  0  0  0  0  0  0  0  0  0
    1.2447   -8.0346    0.0000 C   0  0  0  0  0  0  0  0  0  0  0  0
    1.7849   -5.4933    0.0000 C   0  0  0  0  0  0  0  0  0  0  0  0
    2.7886   -4.3786    0.0000 O   0  0  0  0  0  0  0  0  0  0  0  0
    2.2484   -6.9199    0.0000 N   0  0  0  0  0  0  0  0  0  0  0  0
    3.7156   -7.2317    0.0000 C   0  0  0  0  0  0  0  0  0  0  0  0
    4.7193   -6.1170    0.0000 C   0  0  0  0  0  0  0  0  0  0  0  0
    6.1865   -6.4289    0.0000 C   0  0  0  0  0  0  0  0  0  0  0  0
    7.1902   -5.3142    0.0000 C   0  0  0  0  0  0  0  0  0  0  0  0
    6.6501   -7.8555    0.0000 C   0  0  0  0  0  0  0  0  0  0  0  0
    4.1791   -8.6583    0.0000 C   0  0  0  0  0  0  0  0  0  0  0  0
    5.6464   -8.9702    0.0000 O   0  0  0  0  0  0  0  0  0  0  0  0
    3.1755   -9.7730    0.0000 N   0  0  0  0  0  0  0  0  0  0  0  0
    1.6837   -9.6162    0.0000 C   0  0  0  0  0  0  0  0  0  0  0  0
    1.0736  -10.9866    0.0000 C   0  0  0  0  0  0  0  0  0  0  0  0
    2.1883  -11.9903    0.0000 C   0  0  0  0  0  0  0  0  0  0  0  0
    3.4873  -11.2403    0.0000 C   0  0  0  0  0  0  0  0  0  0  0  0
    4.8576  -11.8504    0.0000 C   0  0  0  0  0  0  0  0  0  0  0  0
    6.0712  -10.9687    0.0000 O   0  0  0  0  0  0  0  0  0  0  0  0
    5.0144  -13.3421    0.0000 N   0  0  0  0  0  0  0  0  0  0  0  0
    6.3847  -13.9522    0.0000 C   0  0  0  0  0  0  0  0  0  0  0  0
    6.5415  -15.4440    0.0000 C   0  0  0  0  0  0  0  0  0  0  0  0
    7.9119  -16.0541    0.0000 C   0  0  0  0  0  0  0  0  0  0  0  0
    9.2822  -16.6642    0.0000 C   0  0  0  0  0  0  0  0  0  0  0  0
    7.5983  -13.0706    0.0000 C   0  0  0  0  0  0  0  0  0  0  0  0
    7.4415  -11.5788    0.0000 O   0  0  0  0  0  0  0  0  0  0  0  0
    8.9686  -13.6807    0.0000 O   0  0  0  0  0  0  0  0  0  0  0  0
  2  1  1  1
  2  3  1  0
  3  4  1  0
  4  5  1  0
  4  6  1  0
  2  7  1  0
  7  8  2  0
  7  9  1  0
  9 10  1  0
 10 11  1  1
 11 12  1  0
 12 13  1  0
 12 14  1  0
 10 15  1  0
 15 16  2  0
 15 17  1  0
 17 18  1  0
 18 19  1  0
 19 20  1  0
 20 21  1  0
 21 22  1  6
 22 23  2  0
 22 24  1  0
 24 25  1  0
 25 26  1  1
 26 27  1  0
 27 28  1  0
 27 29  1  0
 25 30  1  0
 30 31  2  0
 30 32  1  0
 32 33  1  0
 33 34  1  6
 34 35  1  0
 35 36  1  0
 35 37  1  0
 33 38  1  0
 38 39  2  0
 38 40  1  0
 40 41  1  0
 41 42  1  0
 42 43  1  0
 43 44  1  0
 44 45  1  6
 45 46  2  0
 45 47  1  0
 47 48  1  0
 48 49  1  6
 49 50  1  0
 50 51  3  0
 48 52  1  0
 52 53  2  0
 52 54  1  0
 44 40  1  0
 21 17  1  0
M  END
$$$$

     RDKit          2D

 54 55  0  0  0  0  0  0  0  0999 V2000
    1.2760    5.1962    0.0000 N   0  0  0  0  0  0  0  0  0  0  0  0
    2.7760    5.1962    0.0000 C   0  0  0  0  0  0  0  0  0  0  0  0
    3.5260    6.4952    0.0000 C   0  0  0  0  0  0  0  0  0  0  0  0
    2.7760    7.7942    0.0000 C   0  0  0  0  0  0  0  0  0  0  0  0
    3.5260    9.0933    0.0000 C   0  0  0  0  0  0  0  0  0  0  0  0
    1.2760    7.7942    0.0000 C   0  0  0  0  0  0  0  0  0  0  0  0
    3.5260    3.8971    0.0000 C   0  0  0  0  0  0  0  0  0  0  0  0
    5.0260    3.8971    0.0000 O   0  0  0  0  0  0  0  0  0  0  0  0
    2.7760    2.5981    0.0000 N   0  0  0  0  0  0  0  0  0  0  0  0
    3.5260    1.2990    0.0000 C   0  0  0  0  0  0  0  0  0  0  0  0
    5.0260    1.2990    0.0000 C   0  0  0  0  0  0  0  0  0  0  0  0
    5.7760    0.0000    0.0000 C   0  0  0  0  0  0  0  0  0  0  0  0
    7.2760    0.0000    0.0000 C   0  0  0  0  0  0  0  0  0  0  0  0
    5.0260   -1.2990    0.0000 C   0  0  0  0  0  0  0  0  0  0  0  0
    2.7760    0.0000    0.0000 C   0  0  0  0  0  0  0  0  0  0  0  0
    3.5260   -1.2990    0.0000 O   0  0  0  0  0  0  0  0  0  0  0  0
    1.2760    0.0000    0.0000 N   0  0  0  0  0  0  0  0  0  0  0  0
    0.3943    1.2135    0.0000 C   0  0  0  0  0  0  0  0  0  0  0  0
   -1.0323    0.7500    0.0000 C   0  0  0  0  0  0  0  0  0  0  0  0
   -1.0323   -0.7500    0.0000 C   0  0  0  0  0  0  0  0  0  0  0  0
    0.3943   -1.2135    0.0000 C   0  0  0  0  0  0  0  0  0  0  0  0
    0.8578   -2.6401    0.0000 C   0  0  0  0  0  0  0  0  0  0  0  0
    2.3250   -2.9520    0.0000 O   0  0  0  0  0  0  0  0  0  0  0  0
   -0.1459   -3.7548    0.0000 N   0  0  0  0  0  0  0  0  0  0  0  0
    0.3177   -5.1814    0.0000 C   0  0  0  0  0  0  0  0  0  0  0  0
   -0.6860   -6.2961    0.0000 C   0  0  0  0  0  0  0  0  0  0  0  0
   -0.2225   -7.7227    0.0000 C   0  0  0  0  0  0  0  0  0  0  0  0
   -1.2262   -8.8374    0.0000 C   0  0  0  0  0  0  0  0  0  0  0  0
    1.2447   -8.0346    0.0000 C   0  0  0  0  0  0  0  0  0  0  0  0
    1.7849   -5.4933    0.0000 C   0  0  0  0  0  0  0  0  0  0  0  0
    2.7886   -4.3786    0.0000 O   0  0  0  0  0  0  0  0  0  0  0  0
    2.2484   -6.9199    0.0000 N   0  0  0  0  0  0  0  0  0  0  0  0
    3.7156   -7.2317    0.0000 C   0  0  0  0  0  0  0  0  0  0  0  0
    4.7193   -6.1170    0.0000 C   0  0  0  0  0  0  0  0  0  0  0  0
    6.1865   -6.4289    0.0000 C   0  0  0  0  0  0  0  0  0  0  0  0
    7.1902   -5.3142    0.0000 C   0  0  0  0  0  0  0  0  0  0  0  0
    6.6501   -7.8555    0.0000 C   0  0  0  0  0  0  0  0  0  0  0  0
    4.1791   -8.6583    0.0000 C   0  0  0  0  0  0  0  0  0  0  0  0
    5.6464   -8.9702    0.0000 O   0  0  0  0  0  0  0  0  0  0  0  0
    3.1755   -9.7730    0.0000 N   0  0  0  0  0  0  0  0  0  0  0  0
    1.6837   -9.6162    0.0000 C   0  0  0  0  0  0  0  0  0  0  0  0
    1.0736  -10.9866    0.0000 C   0  0  0  0  0  0  0  0  0  0  0  0
    2.1883  -11.9903    0.0000 C   0  0  0  0  0  0  0  0  0  0  0  0
    3.4873  -11.2403    0.0000 C   0  0  0  0  0  0  0  0  0  0  0  0
    4.8576  -11.8504    0.0000 C   0  0  0  0  0  0  0  0  0  0  0  0
    6.0712  -10.9687    0.0000 O   0  0  0  0  0  0  0  0  0  0  0  0
    5.0144  -13.3421    0.0000 N   0  0  0  0  0  0  0  0  0  0  0  0
    6.3847  -13.9522    0.0000 C   0  0  0  0  0  0  0  0  0  0  0  0
    6.5415  -15.4440    0.0000 C   0  0  0  0  0  0  0  0  0  0  0  0
    7.9119  -16.0541    0.0000 C   0  0  0  0  0  0  0  0  0  0  0  0
    9.2822  -16.6642    0.0000 C   0  0  0  0  0  0  0  0  0  0  0  0
    7.5983  -13.0706    0.0000 C   0  0  0  0  0  0  0  0  0  0  0  0
    7.4415  -11.5788    0.0000 O   0  0  0  0  0  0  0  0  0  0  0  0
    8.9686  -13.6807    0.0000 O   0  0  0  0  0  0  0  0  0  0  0  0
  2  1  1  6
  2  3  1  0
  3  4  1  0
  4  5  1  0
  4  6  1  0
  2  7  1  0
  7  8  2  0
  7  9  1  0
  9 10  1  0
 10 11  1  1
 11 12  1  0
 12 13  1  0
 12 14  1  0
 10 15  1  0
 15 16  2  0
 15 17  1  0
 17 18  1  0
 18 19  1  0
 19 20  1  0
 20 21  1  0
 21 22  1  6
 22 23  2  0
 22 24  1  0
 24 25  1  0
 25 26  1  1
 26 27  1  0
 27 28  1  0
 27 29  1  0
 25 30  1  0
 30 31  2  0
 30 32  1  0
 32 33  1  0
 33 34  1  6
 34 35  1  0
 35 36  1  0
 35 37  1  0
 33 38  1  0
 38 39  2  0
 38 40  1  0
 40 41  1  0
 41 42  1  0
 42 43  1  0
 43 44  1  0
 44 45  1  6
 45 46  2  0
 45 47  1  0
 47 48  1  0
 48 49  1  6
 49 50  1  0
 50 51  3  0
 48 52  1  0
 52 53  2  0
 52 54  1  0
 44 40  1  0
 21 17  1  0
M  END
$$$$

     RDKit          2D

 55 56  0  0  0  0  0  0  0  0999 V2000
    1.2760    5.1962    0.0000 N   0  0  0  0  0  0  0  0  0  0  0  0
    0.5260    6.4952    0.0000 C   0  0  0  0  0  0  0  0  0  0  0  0
    2.7760    5.1962    0.0000 C   0  0  0  0  0  0  0  0  0  0  0  0
    3.5260    6.4952    0.0000 C   0  0  0  0  0  0  0  0  0  0  0  0
    2.7760    7.7942    0.0000 C   0  0  0  0  0  0  0  0  0  0  0  0
    3.5260    9.0933    0.0000 C   0  0  0  0  0  0  0  0  0  0  0  0
    1.2760    7.7942    0.0000 C   0  0  0  0  0  0  0  0  0  0  0  0
    3.5260    3.8971    0.0000 C   0  0  0  0  0  0  0  0  0  0  0  0
    5.0260    3.8971    0.0000 O   0  0  0  0  0  0  0  0  0  0  0  0
    2.7760    2.5981    0.0000 N   0  0  0  0  0  0  0  0  0  0  0  0
    3.5260    1.2990    0.0000 C   0  0  0  0  0  0  0  0  0  0  0  0
    5.0260    1.2990    0.0000 C   0  0  0  0  0  0  0  0  0  0  0  0
    5.7760    0.0000    0.0000 C   0  0  0  0  0  0  0  0  0  0  0  0
    7.2760    0.0000    0.0000 C   0  0  0  0  0  0  0  0  0  0  0  0
    5.0260   -1.2990    0.0000 C   0  0  0  0  0  0  0  0  0  0  0  0
    2.7760    0.0000    0.0000 C   0  0  0  0  0  0  0  0  0  0  0  0
    3.5260   -1.2990    0.0000 O   0  0  0  0  0  0  0  0  0  0  0  0
    1.2760    0.0000    0.0000 N   0  0  0  0  0  0  0  0  0  0  0  0
    0.3943    1.2135    0.0000 C   0  0  0  0  0  0  0  0  0  0  0  0
   -1.0323    0.7500    0.0000 C   0  0  0  0  0  0  0  0  0  0  0  0
   -1.0323   -0.7500    0.0000 C   0  0  0  0  0  0  0  0  0  0  0  0
    0.3943   -1.2135    0.0000 C   0  0  0  0  0  0  0  0  0  0  0  0
    0.8578   -2.6401    0.0000 C   0  0  0  0  0  0  0  0  0  0  0  0
    2.3250   -2.9520    0.0000 O   0  0  0  0  0  0  0  0  0  0  0  0
   -0.1459   -3.7548    0.0000 N   0  0  0  0  0  0  0  0  0  0  0  0
    0.3177   -5.1814    0.0000 C   0  0  0  0  0  0  0  0  0  0  0  0
   -0.6860   -6.2961    0.0000 C   0  0  0  0  0  0  0  0  0  0  0  0
   -0.2225   -7.7227    0.0000 C   0  0  0  0  0  0  0  0  0  0  0  0
   -1.2262   -8.8374    0.0000 C   0  0  0  0  0  0  0  0  0  0  0  0
    1.2447   -8.0346    0.0000 C   0  0  0  0  0  0  0  0  0  0  0  0
    1.7849   -5.4933    0.0000 C   0  0  0  0  0  0  0  0  0  0  0  0
    2.7886   -4.3786    0.0000 O   0  0  0  0  0  0  0  0  0  0  0  0
    2.2484   -6.9199    0.0000 N   0  0  0  0  0  0  0  0  0  0  0  0
    3.7156   -7.2317    0.0000 C   0  0  0  0  0  0  0  0  0  0  0  0
    4.7193   -6.1170    0.0000 C   0  0  0  0  0  0  0  0  0  0  0  0
    6.1865   -6.4289    0.0000 C   0  0  0  0  0  0  0  0  0  0  0  0
    7.1902   -5.3142    0.0000 C   0  0  0  0  0  0  0  0  0  0  0  0
    6.6501   -7.8555    0.0000 C   0  0  0  0  0  0  0  0  0  0  0  0
    4.1791   -8.6583    0.0000 C   0  0  0  0  0  0  0  0  0  0  0  0
    5.6464   -8.9702    0.0000 O   0  0  0  0  0  0  0  0  0  0  0  0
    3.1755   -9.7730    0.0000 N   0  0  0  0  0  0  0  0  0  0  0  0
    1.6837   -9.6162    0.0000 C   0  0  0  0  0  0  0  0  0  0  0  0
    1.0736  -10.9866    0.0000 C   0  0  0  0  0  0  0  0  0  0  0  0
    2.1883  -11.9903    0.0000 C   0  0  0  0  0  0  0  0  0  0  0  0
    3.4873  -11.2403    0.0000 C   0  0  0  0  0  0  0  0  0  0  0  0
    4.8576  -11.8504    0.0000 C   0  0  0  0  0  0  0  0  0  0  0  0
    6.0712  -10.9687    0.0000 O   0  0  0  0  0  0  0  0  0  0  0  0
    5.0144  -13.3421    0.0000 N   0  0  0  0  0  0  0  0  0  0  0  0
    6.3847  -13.9522    0.0000 C   0  0  0  0  0  0  0  0  0  0  0  0
    6.5415  -15.4440    0.0000 C   0  0  0  0  0  0  0  0  0  0  0  0
    7.9119  -16.0541    0.0000 C   0  0  0  0  0  0  0  0  0  0  0  0
    9.2822  -16.6642    0.0000 C   0  0  0  0  0  0  0  0  0  0  0  0
    7.5983  -13.0706    0.0000 C   0  0  0  0  0  0  0  0  0  0  0  0
    7.4415  -11.5788    0.0000 O   0  0  0  0  0  0  0  0  0  0  0  0
    8.9686  -13.6807    0.0000 O   0  0  0  0  0  0  0  0  0  0  0  0
  1  2  1  0
  1  3  1  0
  3  4  1  1
  4  5  1  0
  5  6  1  0
  5  7  1  0
  3  8  1  0
  8  9  2  0
  8 10  1  0
 10 11  1  0
 11 12  1  1
 12 13  1  0
 13 14  1  0
 13 15  1  0
 11 16  1  0
 16 17  2  0
 16 18  1  0
 18 19  1  0
 19 20  1  0
 20 21  1  0
 21 22  1  0
 22 23  1  6
 23 24  2  0
 23 25  1  0
 25 26  1  0
 26 27  1  1
 27 28  1  0
 28 29  1  0
 28 30  1  0
 26 31  1  0
 31 32  2  0
 31 33  1  0
 33 34  1  0
 34 35  1  6
 35 36  1  0
 36 37  1  0
 36 38  1  0
 34 39  1  0
 39 40  2  0
 39 41  1  0
 41 42  1  0
 42 43  1  0
 43 44  1  0
 44 45  1  0
 45 46  1  6
 46 47  2  0
 46 48  1  0
 48 49  1  0
 49 50  1  6
 50 51  1  0
 51 52  3  0
 49 53  1  0
 53 54  2  0
 53 55  1  0
 45 41  1  0
 22 18  1  0
M  END
$$$$

     RDKit          2D

 55 56  0  0  0  0  0  0  0  0999 V2000
    1.2760    5.1962    0.0000 N   0  0  0  0  0  0  0  0  0  0  0  0
    0.5260    6.4952    0.0000 C   0  0  0  0  0  0  0  0  0  0  0  0
    2.7760    5.1962    0.0000 C   0  0  0  0  0  0  0  0  0  0  0  0
    3.5260    6.4952    0.0000 C   0  0  0  0  0  0  0  0  0  0  0  0
    2.7760    7.7942    0.0000 C   0  0  0  0  0  0  0  0  0  0  0  0
    3.5260    9.0933    0.0000 C   0  0  0  0  0  0  0  0  0  0  0  0
    1.2760    7.7942    0.0000 C   0  0  0  0  0  0  0  0  0  0  0  0
    3.5260    3.8971    0.0000 C   0  0  0  0  0  0  0  0  0  0  0  0
    5.0260    3.8971    0.0000 O   0  0  0  0  0  0  0  0  0  0  0  0
    2.7760    2.5981    0.0000 N   0  0  0  0  0  0  0  0  0  0  0  0
    3.5260    1.2990    0.0000 C   0  0  0  0  0  0  0  0  0  0  0  0
    5.0260    1.2990    0.0000 C   0  0  0  0  0  0  0  0  0  0  0  0
    5.7760    0.0000    0.0000 C   0  0  0  0  0  0  0  0  0  0  0  0
    7.2760    0.0000    0.0000 C   0  0  0  0  0  0  0  0  0  0  0  0
    5.0260   -1.2990    0.0000 C   0  0  0  0  0  0  0  0  0  0  0  0
    2.7760    0.0000    0.0000 C   0  0  0  0  0  0  0  0  0  0  0  0
    3.5260   -1.2990    0.0000 O   0  0  0  0  0  0  0  0  0  0  0  0
    1.2760    0.0000    0.0000 N   0  0  0  0  0  0  0  0  0  0  0  0
    0.3943    1.2135    0.0000 C   0  0  0  0  0  0  0  0  0  0  0  0
   -1.0323    0.7500    0.0000 C   0  0  0  0  0  0  0  0  0  0  0  0
   -1.0323   -0.7500    0.0000 C   0  0  0  0  0  0  0  0  0  0  0  0
    0.3943   -1.2135    0.0000 C   0  0  0  0  0  0  0  0  0  0  0  0
    0.8578   -2.6401    0.0000 C   0  0  0  0  0  0  0  0  0  0  0  0
    2.3250   -2.9520    0.0000 O   0  0  0  0  0  0  0  0  0  0  0  0
   -0.1459   -3.7548    0.0000 N   0  0  0  0  0  0  0  0  0  0  0  0
    0.3177   -5.1814    0.0000 C   0  0  0  0  0  0  0  0  0  0  0  0
   -0.6860   -6.2961    0.0000 C   0  0  0  0  0  0  0  0  0  0  0  0
   -0.2225   -7.7227    0.0000 C   0  0  0  0  0  0  0  0  0  0  0  0
   -1.2262   -8.8374    0.0000 C   0  0  0  0  0  0  0  0  0  0  0  0
    1.2447   -8.0346    0.0000 C   0  0  0  0  0  0  0  0  0  0  0  0
    1.7849   -5.4933    0.0000 C   0  0  0  0  0  0  0  0  0  0  0  0
    2.7886   -4.3786    0.0000 O   0  0  0  0  0  0  0  0  0  0  0  0
    2.2484   -6.9199    0.0000 N   0  0  0  0  0  0  0  0  0  0  0  0
    3.7156   -7.2317    0.0000 C   0  0  0  0  0  0  0  0  0  0  0  0
    4.7193   -6.1170    0.0000 C   0  0  0  0  0  0  0  0  0  0  0  0
    6.1865   -6.4289    0.0000 C   0  0  0  0  0  0  0  0  0  0  0  0
    7.1902   -5.3142    0.0000 C   0  0  0  0  0  0  0  0  0  0  0  0
    6.6501   -7.8555    0.0000 C   0  0  0  0  0  0  0  0  0  0  0  0
    4.1791   -8.6583    0.0000 C   0  0  0  0  0  0  0  0  0  0  0  0
    5.6464   -8.9702    0.0000 O   0  0  0  0  0  0  0  0  0  0  0  0
    3.1755   -9.7730    0.0000 N   0  0  0  0  0  0  0  0  0  0  0  0
    1.6837   -9.6162    0.0000 C   0  0  0  0  0  0  0  0  0  0  0  0
    1.0736  -10.9866    0.0000 C   0  0  0  0  0  0  0  0  0  0  0  0
    2.1883  -11.9903    0.0000 C   0  0  0  0  0  0  0  0  0  0  0  0
    3.4873  -11.2403    0.0000 C   0  0  0  0  0  0  0  0  0  0  0  0
    4.8576  -11.8504    0.0000 C   0  0  0  0  0  0  0  0  0  0  0  0
    6.0712  -10.9687    0.0000 O   0  0  0  0  0  0  0  0  0  0  0  0
    5.0144  -13.3421    0.0000 N   0  0  0  0  0  0  0  0  0  0  0  0
    6.3847  -13.9522    0.0000 C   0  0  0  0  0  0  0  0  0  0  0  0
    6.5415  -15.4440    0.0000 C   0  0  0  0  0  0  0  0  0  0  0  0
    7.9119  -16.0541    0.0000 C   0  0  0  0  0  0  0  0  0  0  0  0
    9.2822  -16.6642    0.0000 C   0  0  0  0  0  0  0  0  0  0  0  0
    7.5983  -13.0706    0.0000 C   0  0  0  0  0  0  0  0  0  0  0  0
    7.4415  -11.5788    0.0000 O   0  0  0  0  0  0  0  0  0  0  0  0
    8.9686  -13.6807    0.0000 O   0  0  0  0  0  0  0  0  0  0  0  0
  1  2  1  0
  1  3  1  0
  3  4  1  6
  4  5  1  0
  5  6  1  0
  5  7  1  0
  3  8  1  0
  8  9  2  0
  8 10  1  0
 10 11  1  0
 11 12  1  1
 12 13  1  0
 13 14  1  0
 13 15  1  0
 11 16  1  0
 16 17  2  0
 16 18  1  0
 18 19  1  0
 19 20  1  0
 20 21  1  0
 21 22  1  0
 22 23  1  6
 23 24  2  0
 23 25  1  0
 25 26  1  0
 26 27  1  1
 27 28  1  0
 28 29  1  0
 28 30  1  0
 26 31  1  0
 31 32  2  0
 31 33  1  0
 33 34  1  0
 34 35  1  6
 35 36  1  0
 36 37  1  0
 36 38  1  0
 34 39  1  0
 39 40  2  0
 39 41  1  0
 41 42  1  0
 42 43  1  0
 43 44  1  0
 44 45  1  0
 45 46  1  6
 46 47  2  0
 46 48  1  0
 48 49  1  0
 49 50  1  6
 50 51  1  0
 51 52  3  0
 49 53  1  0
 53 54  2  0
 53 55  1  0
 45 41  1  0
 22 18  1  0
M  END
$$$$

     RDKit          2D

 54 55  0  0  0  0  0  0  0  0999 V2000
    1.2760    5.1962    0.0000 N   0  0  0  0  0  0  0  0  0  0  0  0
    2.7760    5.1962    0.0000 C   0  0  0  0  0  0  0  0  0  0  0  0
    3.5260    6.4952    0.0000 C   0  0  0  0  0  0  0  0  0  0  0  0
    2.7760    7.7942    0.0000 C   0  0  0  0  0  0  0  0  0  0  0  0
    3.5260    9.0933    0.0000 C   0  0  0  0  0  0  0  0  0  0  0  0
    1.2760    7.7942    0.0000 C   0  0  0  0  0  0  0  0  0  0  0  0
    3.5260    3.8971    0.0000 C   0  0  0  0  0  0  0  0  0  0  0  0
    5.0260    3.8971    0.0000 O   0  0  0  0  0  0  0  0  0  0  0  0
    2.7760    2.5981    0.0000 N   0  0  0  0  0  0  0  0  0  0  0  0
    3.5260    1.2990    0.0000 C   0  0  0  0  0  0  0  0  0  0  0  0
    5.0260    1.2990    0.0000 C   0  0  0  0  0  0  0  0  0  0  0  0
    5.7760    0.0000    0.0000 C   0  0  0  0  0  0  0  0  0  0  0  0
    7.2760    0.0000    0.0000 C   0  0  0  0  0  0  0  0  0  0  0  0
    5.0260   -1.2990    0.0000 C   0  0  0  0  0  0  0  0  0  0  0  0
    2.7760    0.0000    0.0000 C   0  0  0  0  0  0  0  0  0  0  0  0
    3.5260   -1.2990    0.0000 O   0  0  0  0  0  0  0  0  0  0  0  0
    1.2760    0.0000    0.0000 N   0  0  0  0  0  0  0  0  0  0  0  0
    0.3943    1.2135    0.0000 C   0  0  0  0  0  0  0  0  0  0  0  0
   -1.0323    0.7500    0.0000 C   0  0  0  0  0  0  0  0  0  0  0  0
   -1.0323   -0.7500    0.0000 C   0  0  0  0  0  0  0  0  0  0  0  0
    0.3943   -1.2135    0.0000 C   0  0  0  0  0  0  0  0  0  0  0  0
    0.8578   -2.6401    0.0000 C   0  0  0  0  0  0  0  0  0  0  0  0
    2.3250   -2.9520    0.0000 O   0  0  0  0  0  0  0  0  0  0  0  0
   -0.1459   -3.7548    0.0000 N   0  0  0  0  0  0  0  0  0  0  0  0
    0.3177   -5.1814    0.0000 C   0  0  0  0  0  0  0  0  0  0  0  0
   -0.6860   -6.2961    0.0000 C   0  0  0  0  0  0  0  0  0  0  0  0
   -0.2225   -7.7227    0.0000 C   0  0  0  0  0  0  0  0  0  0  0  0
   -1.2262   -8.8374    0.0000 C   0  0  0  0  0  0  0  0  0  0  0  0
    1.2447   -8.0346    0.0000 C   0  0  0  0  0  0  0  0  0  0  0  0
    1.7849   -5.4933    0.0000 C   0  0  0  0  0  0  0  0  0  0  0  0
    2.7886   -4.3786    0.0000 O   0  0  0  0  0  0  0  0  0  0  0  0
    2.2484   -6.9199    0.0000 N   0  0  0  0  0  0  0  0  0  0  0  0
    3.7156   -7.2317    0.0000 C   0  0  0  0  0  0  0  0  0  0  0  0
    4.7193   -6.1170    0.0000 C   0  0  0  0  0  0  0  0  0  0  0  0
    6.1865   -6.4289    0.0000 C   0  0  0  0  0  0  0  0  0  0  0  0
    7.1902   -5.3142    0.0000 C   0  0  0  0  0  0  0  0  0  0  0  0
    6.6501   -7.8555    0.0000 C   0  0  0  0  0  0  0  0  0  0  0  0
    4.1791   -8.6583    0.0000 C   0  0  0  0  0  0  0  0  0  0  0  0
    5.6464   -8.9702    0.0000 O   0  0  0  0  0  0  0  0  0  0  0  0
    3.1755   -9.7730    0.0000 N   0  0  0  0  0  0  0  0  0  0  0  0
    1.6837   -9.6162    0.0000 C   0  0  0  0  0  0  0  0  0  0  0  0
    1.0736  -10.9866    0.0000 C   0  0  0  0  0  0  0  0  0  0  0  0
    2.1883  -11.9903    0.0000 C   0  0  0  0  0  0  0  0  0  0  0  0
    3.4873  -11.2403    0.0000 C   0  0  0  0  0  0  0  0  0  0  0  0
    4.8576  -11.8504    0.0000 C   0  0  0  0  0  0  0  0  0  0  0  0
    6.0712  -10.9687    0.0000 O   0  0  0  0  0  0  0  0  0  0  0  0
    5.0144  -13.3421    0.0000 N   0  0  0  0  0  0  0  0  0  0  0  0
    6.3847  -13.9522    0.0000 C   0  0  0  0  0  0  0  0  0  0  0  0
    6.5415  -15.4440    0.0000 C   0  0  0  0  0  0  0  0  0  0  0  0
    7.9119  -16.0541    0.0000 C   0  0  0  0  0  0  0  0  0  0  0  0
    9.2822  -16.6642    0.0000 C   0  0  0  0  0  0  0  0  0  0  0  0
    7.5983  -13.0706    0.0000 C   0  0  0  0  0  0  0  0  0  0  0  0
    7.4415  -11.5788    0.0000 O   0  0  0  0  0  0  0  0  0  0  0  0
    8.9686  -13.6807    0.0000 O   0  0  0  0  0  0  0  0  0  0  0  0
  2  1  1  1
  2  3  1  0
  3  4  1  0
  4  5  1  0
  4  6  1  0
  2  7  1  0
  7  8  2  0
  7  9  1  0
  9 10  1  0
 10 11  1  6
 11 12  1  0
 12 13  1  0
 12 14  1  0
 10 15  1  0
 15 16  2  0
 15 17  1  0
 17 18  1  0
 18 19  1  0
 19 20  1  0
 20 21  1  0
 21 22  1  6
 22 23  2  0
 22 24  1  0
 24 25  1  0
 25 26  1  1
 26 27  1  0
 27 28  1  0
 27 29  1  0
 25 30  1  0
 30 31  2  0
 30 32  1  0
 32 33  1  0
 33 34  1  6
 34 35  1  0
 35 36  1  0
 35 37  1  0
 33 38  1  0
 38 39  2  0
 38 40  1  0
 40 41  1  0
 41 42  1  0
 42 43  1  0
 43 44  1  0
 44 45  1  6
 45 46  2  0
 45 47  1  0
 47 48  1  0
 48 49  1  6
 49 50  1  0
 50 51  3  0
 48 52  1  0
 52 53  2  0
 52 54  1  0
 44 40  1  0
 21 17  1  0
M  END
$$$$

     RDKit          2D

 54 55  0  0  0  0  0  0  0  0999 V2000
    1.2760    5.1962    0.0000 N   0  0  0  0  0  0  0  0  0  0  0  0
    2.7760    5.1962    0.0000 C   0  0  0  0  0  0  0  0  0  0  0  0
    3.5260    6.4952    0.0000 C   0  0  0  0  0  0  0  0  0  0  0  0
    2.7760    7.7942    0.0000 C   0  0  0  0  0  0  0  0  0  0  0  0
    3.5260    9.0933    0.0000 C   0  0  0  0  0  0  0  0  0  0  0  0
    1.2760    7.7942    0.0000 C   0  0  0  0  0  0  0  0  0  0  0  0
    3.5260    3.8971    0.0000 C   0  0  0  0  0  0  0  0  0  0  0  0
    5.0260    3.8971    0.0000 O   0  0  0  0  0  0  0  0  0  0  0  0
    2.7760    2.5981    0.0000 N   0  0  0  0  0  0  0  0  0  0  0  0
    3.5260    1.2990    0.0000 C   0  0  0  0  0  0  0  0  0  0  0  0
    5.0260    1.2990    0.0000 C   0  0  0  0  0  0  0  0  0  0  0  0
    5.7760    0.0000    0.0000 C   0  0  0  0  0  0  0  0  0  0  0  0
    7.2760    0.0000    0.0000 C   0  0  0  0  0  0  0  0  0  0  0  0
    5.0260   -1.2990    0.0000 C   0  0  0  0  0  0  0  0  0  0  0  0
    2.7760    0.0000    0.0000 C   0  0  0  0  0  0  0  0  0  0  0  0
    3.5260   -1.2990    0.0000 O   0  0  0  0  0  0  0  0  0  0  0  0
    1.2760    0.0000    0.0000 N   0  0  0  0  0  0  0  0  0  0  0  0
    0.3943    1.2135    0.0000 C   0  0  0  0  0  0  0  0  0  0  0  0
   -1.0323    0.7500    0.0000 C   0  0  0  0  0  0  0  0  0  0  0  0
   -1.0323   -0.7500    0.0000 C   0  0  0  0  0  0  0  0  0  0  0  0
    0.3943   -1.2135    0.0000 C   0  0  0  0  0  0  0  0  0  0  0  0
    0.8578   -2.6401    0.0000 C   0  0  0  0  0  0  0  0  0  0  0  0
    2.3250   -2.9520    0.0000 O   0  0  0  0  0  0  0  0  0  0  0  0
   -0.1459   -3.7548    0.0000 N   0  0  0  0  0  0  0  0  0  0  0  0
    0.3177   -5.1814    0.0000 C   0  0  0  0  0  0  0  0  0  0  0  0
   -0.6860   -6.2961    0.0000 C   0  0  0  0  0  0  0  0  0  0  0  0
   -0.2225   -7.7227    0.0000 C   0  0  0  0  0  0  0  0  0  0  0  0
   -1.2262   -8.8374    0.0000 C   0  0  0  0  0  0  0  0  0  0  0  0
    1.2447   -8.0346    0.0000 C   0  0  0  0  0  0  0  0  0  0  0  0
    1.7849   -5.4933    0.0000 C   0  0  0  0  0  0  0  0  0  0  0  0
    2.7886   -4.3786    0.0000 O   0  0  0  0  0  0  0  0  0  0  0  0
    2.2484   -6.9199    0.0000 N   0  0  0  0  0  0  0  0  0  0  0  0
    3.7156   -7.2317    0.0000 C   0  0  0  0  0  0  0  0  0  0  0  0
    4.7193   -6.1170    0.0000 C   0  0  0  0  0  0  0  0  0  0  0  0
    6.1865   -6.4289    0.0000 C   0  0  0  0  0  0  0  0  0  0  0  0
    7.1902   -5.3142    0.0000 C   0  0  0  0  0  0  0  0  0  0  0  0
    6.6501   -7.8555    0.0000 C   0  0  0  0  0  0  0  0  0  0  0  0
    4.1791   -8.6583    0.0000 C   0  0  0  0  0  0  0  0  0  0  0  0
    5.6464   -8.9702    0.0000 O   0  0  0  0  0  0  0  0  0  0  0  0
    3.1755   -9.7730    0.0000 N   0  0  0  0  0  0  0  0  0  0  0  0
    1.6837   -9.6162    0.0000 C   0  0  0  0  0  0  0  0  0  0  0  0
    1.0736  -10.9866    0.0000 C   0  0  0  0  0  0  0  0  0  0  0  0
    2.1883  -11.9903    0.0000 C   0  0  0  0  0  0  0  0  0  0  0  0
    3.4873  -11.2403    0.0000 C   0  0  0  0  0  0  0  0  0  0  0  0
    4.8576  -11.8504    0.0000 C   0  0  0  0  0  0  0  0  0  0  0  0
    6.0712  -10.9687    0.0000 O   0  0  0  0  0  0  0  0  0  0  0  0
    5.0144  -13.3421    0.0000 N   0  0  0  0  0  0  0  0  0  0  0  0
    6.3847  -13.9522    0.0000 C   0  0  0  0  0  0  0  0  0  0  0  0
    6.5415  -15.4440    0.0000 C   0  0  0  0  0  0  0  0  0  0  0  0
    7.9119  -16.0541    0.0000 C   0  0  0  0  0  0  0  0  0  0  0  0
    9.2822  -16.6642    0.0000 C   0  0  0  0  0  0  0  0  0  0  0  0
    7.5983  -13.0706    0.0000 C   0  0  0  0  0  0  0  0  0  0  0  0
    7.4415  -11.5788    0.0000 O   0  0  0  0  0  0  0  0  0  0  0  0
    8.9686  -13.6807    0.0000 O   0  0  0  0  0  0  0  0  0  0  0  0
  2  1  1  6
  2  3  1  0
  3  4  1  0
  4  5  1  0
  4  6  1  0
  2  7  1  0
  7  8  2  0
  7  9  1  0
  9 10  1  0
 10 11  1  6
 11 12  1  0
 12 13  1  0
 12 14  1  0
 10 15  1  0
 15 16  2  0
 15 17  1  0
 17 18  1  0
 18 19  1  0
 19 20  1  0
 20 21  1  0
 21 22  1  6
 22 23  2  0
 22 24  1  0
 24 25  1  0
 25 26  1  1
 26 27  1  0
 27 28  1  0
 27 29  1  0
 25 30  1  0
 30 31  2  0
 30 32  1  0
 32 33  1  0
 33 34  1  6
 34 35  1  0
 35 36  1  0
 35 37  1  0
 33 38  1  0
 38 39  2  0
 38 40  1  0
 40 41  1  0
 41 42  1  0
 42 43  1  0
 43 44  1  0
 44 45  1  6
 45 46  2  0
 45 47  1  0
 47 48  1  0
 48 49  1  6
 49 50  1  0
 50 51  3  0
 48 52  1  0
 52 53  2  0
 52 54  1  0
 21 17  1  0
 44 40  1  0
M  END
$$$$

     RDKit          2D

 55 56  0  0  0  0  0  0  0  0999 V2000
    1.2760    5.1962    0.0000 N   0  0  0  0  0  0  0  0  0  0  0  0
    0.5260    6.4952    0.0000 C   0  0  0  0  0  0  0  0  0  0  0  0
    2.7760    5.1962    0.0000 C   0  0  0  0  0  0  0  0  0  0  0  0
    3.5260    6.4952    0.0000 C   0  0  0  0  0  0  0  0  0  0  0  0
    2.7760    7.7942    0.0000 C   0  0  0  0  0  0  0  0  0  0  0  0
    3.5260    9.0933    0.0000 C   0  0  0  0  0  0  0  0  0  0  0  0
    1.2760    7.7942    0.0000 C   0  0  0  0  0  0  0  0  0  0  0  0
    3.5260    3.8971    0.0000 C   0  0  0  0  0  0  0  0  0  0  0  0
    5.0260    3.8971    0.0000 O   0  0  0  0  0  0  0  0  0  0  0  0
    2.7760    2.5981    0.0000 N   0  0  0  0  0  0  0  0  0  0  0  0
    3.5260    1.2990    0.0000 C   0  0  0  0  0  0  0  0  0  0  0  0
    5.0260    1.2990    0.0000 C   0  0  0  0  0  0  0  0  0  0  0  0
    5.7760    0.0000    0.0000 C   0  0  0  0  0  0  0  0  0  0  0  0
    7.2760    0.0000    0.0000 C   0  0  0  0  0  0  0  0  0  0  0  0
    5.0260   -1.2990    0.0000 C   0  0  0  0  0  0  0  0  0  0  0  0
    2.7760    0.0000    0.0000 C   0  0  0  0  0  0  0  0  0  0  0  0
    3.5260   -1.2990    0.0000 O   0  0  0  0  0  0  0  0  0  0  0  0
    1.2760    0.0000    0.0000 N   0  0  0  0  0  0  0  0  0  0  0  0
    0.3943    1.2135    0.0000 C   0  0  0  0  0  0  0  0  0  0  0  0
   -1.0323    0.7500    0.0000 C   0  0  0  0  0  0  0  0  0  0  0  0
   -1.0323   -0.7500    0.0000 C   0  0  0  0  0  0  0  0  0  0  0  0
    0.3943   -1.2135    0.0000 C   0  0  0  0  0  0  0  0  0  0  0  0
    0.8578   -2.6401    0.0000 C   0  0  0  0  0  0  0  0  0  0  0  0
    2.3250   -2.9520    0.0000 O   0  0  0  0  0  0  0  0  0  0  0  0
   -0.1459   -3.7548    0.0000 N   0  0  0  0  0  0  0  0  0  0  0  0
    0.3177   -5.1814    0.0000 C   0  0  0  0  0  0  0  0  0  0  0  0
   -0.6860   -6.2961    0.0000 C   0  0  0  0  0  0  0  0  0  0  0  0
   -0.2225   -7.7227    0.0000 C   0  0  0  0  0  0  0  0  0  0  0  0
   -1.2262   -8.8374    0.0000 C   0  0  0  0  0  0  0  0  0  0  0  0
    1.2447   -8.0346    0.0000 C   0  0  0  0  0  0  0  0  0  0  0  0
    1.7849   -5.4933    0.0000 C   0  0  0  0  0  0  0  0  0  0  0  0
    2.7886   -4.3786    0.0000 O   0  0  0  0  0  0  0  0  0  0  0  0
    2.2484   -6.9199    0.0000 N   0  0  0  0  0  0  0  0  0  0  0  0
    3.7156   -7.2317    0.0000 C   0  0  0  0  0  0  0  0  0  0  0  0
    4.7193   -6.1170    0.0000 C   0  0  0  0  0  0  0  0  0  0  0  0
    6.1865   -6.4289    0.0000 C   0  0  0  0  0  0  0  0  0  0  0  0
    7.1902   -5.3142    0.0000 C   0  0  0  0  0  0  0  0  0  0  0  0
    6.6501   -7.8555    0.0000 C   0  0  0  0  0  0  0  0  0  0  0  0
    4.1791   -8.6583    0.0000 C   0  0  0  0  0  0  0  0  0  0  0  0
    5.6464   -8.9702    0.0000 O   0  0  0  0  0  0  0  0  0  0  0  0
    3.1755   -9.7730    0.0000 N   0  0  0  0  0  0  0  0  0  0  0  0
    1.6837   -9.6162    0.0000 C   0  0  0  0  0  0  0  0  0  0  0  0
    1.0736  -10.9866    0.0000 C   0  0  0  0  0  0  0  0  0  0  0  0
    2.1883  -11.9903    0.0000 C   0  0  0  0  0  0  0  0  0  0  0  0
    3.4873  -11.2403    0.0000 C   0  0  0  0  0  0  0  0  0  0  0  0
    4.8576  -11.8504    0.0000 C   0  0  0  0  0  0  0  0  0  0  0  0
    6.0712  -10.9687    0.0000 O   0  0  0  0  0  0  0  0  0  0  0  0
    5.0144  -13.3421    0.0000 N   0  0  0  0  0  0  0  0  0  0  0  0
    6.3847  -13.9522    0.0000 C   0  0  0  0  0  0  0  0  0  0  0  0
    6.5415  -15.4440    0.0000 C   0  0  0  0  0  0  0  0  0  0  0  0
    7.9119  -16.0541    0.0000 C   0  0  0  0  0  0  0  0  0  0  0  0
    9.2822  -16.6642    0.0000 C   0  0  0  0  0  0  0  0  0  0  0  0
    7.5983  -13.0706    0.0000 C   0  0  0  0  0  0  0  0  0  0  0  0
    7.4415  -11.5788    0.0000 O   0  0  0  0  0  0  0  0  0  0  0  0
    8.9686  -13.6807    0.0000 O   0  0  0  0  0  0  0  0  0  0  0  0
  1  2  1  0
  1  3  1  0
  3  4  1  1
  4  5  1  0
  5  6  1  0
  5  7  1  0
  3  8  1  0
  8  9  2  0
  8 10  1  0
 10 11  1  0
 11 12  1  6
 12 13  1  0
 13 14  1  0
 13 15  1  0
 11 16  1  0
 16 17  2  0
 16 18  1  0
 18 19  1  0
 19 20  1  0
 20 21  1  0
 21 22  1  0
 22 23  1  6
 23 24  2  0
 23 25  1  0
 25 26  1  0
 26 27  1  1
 27 28  1  0
 28 29  1  0
 28 30  1  0
 26 31  1  0
 31 32  2  0
 31 33  1  0
 33 34  1  0
 34 35  1  6
 35 36  1  0
 36 37  1  0
 36 38  1  0
 34 39  1  0
 39 40  2  0
 39 41  1  0
 41 42  1  0
 42 43  1  0
 43 44  1  0
 44 45  1  0
 45 46  1  6
 46 47  2  0
 46 48  1  0
 48 49  1  0
 49 50  1  6
 50 51  1  0
 51 52  3  0
 49 53  1  0
 53 54  2  0
 53 55  1  0
 22 18  1  0
 45 41  1  0
M  END
$$$$

     RDKit          2D

 55 56  0  0  0  0  0  0  0  0999 V2000
    1.2760    5.1962    0.0000 N   0  0  0  0  0  0  0  0  0  0  0  0
    0.5260    6.4952    0.0000 C   0  0  0  0  0  0  0  0  0  0  0  0
    2.7760    5.1962    0.0000 C   0  0  0  0  0  0  0  0  0  0  0  0
    3.5260    6.4952    0.0000 C   0  0  0  0  0  0  0  0  0  0  0  0
    2.7760    7.7942    0.0000 C   0  0  0  0  0  0  0  0  0  0  0  0
    3.5260    9.0933    0.0000 C   0  0  0  0  0  0  0  0  0  0  0  0
    1.2760    7.7942    0.0000 C   0  0  0  0  0  0  0  0  0  0  0  0
    3.5260    3.8971    0.0000 C   0  0  0  0  0  0  0  0  0  0  0  0
    5.0260    3.8971    0.0000 O   0  0  0  0  0  0  0  0  0  0  0  0
    2.7760    2.5981    0.0000 N   0  0  0  0  0  0  0  0  0  0  0  0
    3.5260    1.2990    0.0000 C   0  0  0  0  0  0  0  0  0  0  0  0
    5.0260    1.2990    0.0000 C   0  0  0  0  0  0  0  0  0  0  0  0
    5.7760    0.0000    0.0000 C   0  0  0  0  0  0  0  0  0  0  0  0
    7.2760    0.0000    0.0000 C   0  0  0  0  0  0  0  0  0  0  0  0
    5.0260   -1.2990    0.0000 C   0  0  0  0  0  0  0  0  0  0  0  0
    2.7760    0.0000    0.0000 C   0  0  0  0  0  0  0  0  0  0  0  0
    3.5260   -1.2990    0.0000 O   0  0  0  0  0  0  0  0  0  0  0  0
    1.2760    0.0000    0.0000 N   0  0  0  0  0  0  0  0  0  0  0  0
    0.3943    1.2135    0.0000 C   0  0  0  0  0  0  0  0  0  0  0  0
   -1.0323    0.7500    0.0000 C   0  0  0  0  0  0  0  0  0  0  0  0
   -1.0323   -0.7500    0.0000 C   0  0  0  0  0  0  0  0  0  0  0  0
    0.3943   -1.2135    0.0000 C   0  0  0  0  0  0  0  0  0  0  0  0
    0.8578   -2.6401    0.0000 C   0  0  0  0  0  0  0  0  0  0  0  0
    2.3250   -2.9520    0.0000 O   0  0  0  0  0  0  0  0  0  0  0  0
   -0.1459   -3.7548    0.0000 N   0  0  0  0  0  0  0  0  0  0  0  0
    0.3177   -5.1814    0.0000 C   0  0  0  0  0  0  0  0  0  0  0  0
   -0.6860   -6.2961    0.0000 C   0  0  0  0  0  0  0  0  0  0  0  0
   -0.2225   -7.7227    0.0000 C   0  0  0  0  0  0  0  0  0  0  0  0
   -1.2262   -8.8374    0.0000 C   0  0  0  0  0  0  0  0  0  0  0  0
    1.2447   -8.0346    0.0000 C   0  0  0  0  0  0  0  0  0  0  0  0
    1.7849   -5.4933    0.0000 C   0  0  0  0  0  0  0  0  0  0  0  0
    2.7886   -4.3786    0.0000 O   0  0  0  0  0  0  0  0  0  0  0  0
    2.2484   -6.9199    0.0000 N   0  0  0  0  0  0  0  0  0  0  0  0
    3.7156   -7.2317    0.0000 C   0  0  0  0  0  0  0  0  0  0  0  0
    4.7193   -6.1170    0.0000 C   0  0  0  0  0  0  0  0  0  0  0  0
    6.1865   -6.4289    0.0000 C   0  0  0  0  0  0  0  0  0  0  0  0
    7.1902   -5.3142    0.0000 C   0  0  0  0  0  0  0  0  0  0  0  0
    6.6501   -7.8555    0.0000 C   0  0  0  0  0  0  0  0  0  0  0  0
    4.1791   -8.6583    0.0000 C   0  0  0  0  0  0  0  0  0  0  0  0
    5.6464   -8.9702    0.0000 O   0  0  0  0  0  0  0  0  0  0  0  0
    3.1755   -9.7730    0.0000 N   0  0  0  0  0  0  0  0  0  0  0  0
    1.6837   -9.6162    0.0000 C   0  0  0  0  0  0  0  0  0  0  0  0
    1.0736  -10.9866    0.0000 C   0  0  0  0  0  0  0  0  0  0  0  0
    2.1883  -11.9903    0.0000 C   0  0  0  0  0  0  0  0  0  0  0  0
    3.4873  -11.2403    0.0000 C   0  0  0  0  0  0  0  0  0  0  0  0
    4.8576  -11.8504    0.0000 C   0  0  0  0  0  0  0  0  0  0  0  0
    6.0712  -10.9687    0.0000 O   0  0  0  0  0  0  0  0  0  0  0  0
    5.0144  -13.3421    0.0000 N   0  0  0  0  0  0  0  0  0  0  0  0
    6.3847  -13.9522    0.0000 C   0  0  0  0  0  0  0  0  0  0  0  0
    6.5415  -15.4440    0.0000 C   0  0  0  0  0  0  0  0  0  0  0  0
    7.9119  -16.0541    0.0000 C   0  0  0  0  0  0  0  0  0  0  0  0
    9.2822  -16.6642    0.0000 C   0  0  0  0  0  0  0  0  0  0  0  0
    7.5983  -13.0706    0.0000 C   0  0  0  0  0  0  0  0  0  0  0  0
    7.4415  -11.5788    0.0000 O   0  0  0  0  0  0  0  0  0  0  0  0
    8.9686  -13.6807    0.0000 O   0  0  0  0  0  0  0  0  0  0  0  0
  1  2  1  0
  1  3  1  0
  3  4  1  6
  4  5  1  0
  5  6  1  0
  5  7  1  0
  3  8  1  0
  8  9  2  0
  8 10  1  0
 10 11  1  0
 11 12  1  6
 12 13  1  0
 13 14  1  0
 13 15  1  0
 11 16  1  0
 16 17  2  0
 16 18  1  0
 18 19  1  0
 19 20  1  0
 20 21  1  0
 21 22  1  0
 22 23  1  6
 23 24  2  0
 23 25  1  0
 25 26  1  0
 26 27  1  1
 27 28  1  0
 28 29  1  0
 28 30  1  0
 26 31  1  0
 31 32  2  0
 31 33  1  0
 33 34  1  0
 34 35  1  6
 35 36  1  0
 36 37  1  0
 36 38  1  0
 34 39  1  0
 39 40  2  0
 39 41  1  0
 41 42  1  0
 42 43  1  0
 43 44  1  0
 44 45  1  0
 45 46  1  6
 46 47  2  0
 46 48  1  0
 48 49  1  0
 49 50  1  6
 50 51  1  0
 51 52  3  0
 49 53  1  0
 53 54  2  0
 53 55  1  0
 22 18  1  0
 45 41  1  0
M  END
$$$$

     RDKit          2D

 55 56  0  0  0  0  0  0  0  0999 V2000
    8.0260    1.2990    0.0000 N   0  0  0  0  0  0  0  0  0  0  0  0
    7.2760    0.0000    0.0000 C   0  0  0  0  0  0  0  0  0  0  0  0
    8.0260   -1.2990    0.0000 C   0  0  0  0  0  0  0  0  0  0  0  0
    9.5260   -1.2990    0.0000 C   0  0  0  0  0  0  0  0  0  0  0  0
   10.2760   -2.5981    0.0000 C   0  0  0  0  0  0  0  0  0  0  0  0
   10.2760    0.0000    0.0000 C   0  0  0  0  0  0  0  0  0  0  0  0
    5.7760    0.0000    0.0000 C   0  0  0  0  0  0  0  0  0  0  0  0
    5.0260   -1.2990    0.0000 O   0  0  0  0  0  0  0  0  0  0  0  0
    5.0260    1.2990    0.0000 N   0  0  0  0  0  0  0  0  0  0  0  0
    5.7760    2.5981    0.0000 C   0  0  0  0  0  0  0  0  0  0  0  0
    3.5260    1.2990    0.0000 C   0  0  0  0  0  0  0  0  0  0  0  0
    2.7760    2.5981    0.0000 C   0  0  0  0  0  0  0  0  0  0  0  0
    3.5260    3.8971    0.0000 C   0  0  0  0  0  0  0  0  0  0  0  0
    2.7760    5.1962    0.0000 C   0  0  0  0  0  0  0  0  0  0  0  0
    5.0260    3.8971    0.0000 C   0  0  0  0  0  0  0  0  0  0  0  0
    2.7760    0.0000    0.0000 C   0  0  0  0  0  0  0  0  0  0  0  0
    3.5260   -1.2990    0.0000 O   0  0  0  0  0  0  0  0  0  0  0  0
    1.2760    0.0000    0.0000 N   0  0  0  0  0  0  0  0  0  0  0  0
    0.3943    1.2135    0.0000 C   0  0  0  0  0  0  0  0  0  0  0  0
   -1.0323    0.7500    0.0000 C   0  0  0  0  0  0  0  0  0  0  0  0
   -1.0323   -0.7500    0.0000 C   0  0  0  0  0  0  0  0  0  0  0  0
    0.3943   -1.2135    0.0000 C   0  0  0  0  0  0  0  0  0  0  0  0
    0.8578   -2.6401    0.0000 C   0  0  0  0  0  0  0  0  0  0  0  0
    2.3250   -2.9520    0.0000 O   0  0  0  0  0  0  0  0  0  0  0  0
   -0.1459   -3.7548    0.0000 N   0  0  0  0  0  0  0  0  0  0  0  0
    0.3177   -5.1814    0.0000 C   0  0  0  0  0  0  0  0  0  0  0  0
   -0.6860   -6.2961    0.0000 C   0  0  0  0  0  0  0  0  0  0  0  0
   -0.2225   -7.7227    0.0000 C   0  0  0  0  0  0  0  0  0  0  0  0
   -1.2262   -8.8374    0.0000 C   0  0  0  0  0  0  0  0  0  0  0  0
    1.2447   -8.0346    0.0000 C   0  0  0  0  0  0  0  0  0  0  0  0
    1.7849   -5.4933    0.0000 C   0  0  0  0  0  0  0  0  0  0  0  0
    2.7886   -4.3786    0.0000 O   0  0  0  0  0  0  0  0  0  0  0  0
    2.2484   -6.9199    0.0000 N   0  0  0  0  0  0  0  0  0  0  0  0
    3.7156   -7.2317    0.0000 C   0  0  0  0  0  0  0  0  0  0  0  0
    4.1791   -8.6583    0.0000 C   0  0  0  0  0  0  0  0  0  0  0  0
    3.1755   -9.7730    0.0000 C   0  0  0  0  0  0  0  0  0  0  0  0
    3.6390  -11.1996    0.0000 C   0  0  0  0  0  0  0  0  0  0  0  0
    1.7082   -9.4612    0.0000 C   0  0  0  0  0  0  0  0  0  0  0  0
    4.7193   -6.1170    0.0000 C   0  0  0  0  0  0  0  0  0  0  0  0
    4.2558   -4.6904    0.0000 O   0  0  0  0  0  0  0  0  0  0  0  0
    6.1865   -6.4289    0.0000 N   0  0  0  0  0  0  0  0  0  0  0  0
    7.3013   -5.4252    0.0000 C   0  0  0  0  0  0  0  0  0  0  0  0
    8.6003   -6.1752    0.0000 C   0  0  0  0  0  0  0  0  0  0  0  0
    8.2884   -7.6424    0.0000 C   0  0  0  0  0  0  0  0  0  0  0  0
    6.7966   -7.7992    0.0000 C   0  0  0  0  0  0  0  0  0  0  0  0
    6.0466   -9.0982    0.0000 C   0  0  0  0  0  0  0  0  0  0  0  0
    4.5912   -9.4612    0.0000 O   0  0  0  0  0  0  0  0  0  0  0  0
    6.7966  -10.3973    0.0000 N   0  0  0  0  0  0  0  0  0  0  0  0
    6.0466  -11.6963    0.0000 C   0  0  0  0  0  0  0  0  0  0  0  0
    6.7966  -12.9954    0.0000 C   0  0  0  0  0  0  0  0  0  0  0  0
    6.0466  -14.2944    0.0000 C   0  0  0  0  0  0  0  0  0  0  0  0
    5.2966  -15.5934    0.0000 C   0  0  0  0  0  0  0  0  0  0  0  0
    4.5466  -11.6963    0.0000 C   0  0  0  0  0  0  0  0  0  0  0  0
    3.7966  -10.3973    0.0000 O   0  0  0  0  0  0  0  0  0  0  0  0
    3.7966  -12.9954    0.0000 O   0  0  0  0  0  0  0  0  0  0  0  0
  2  1  1  1
  2  3  1  0
  3  4  1  0
  4  5  1  0
  4  6  1  0
  2  7  1  0
  7  8  2  0
  7  9  1  0
  9 10  1  0
  9 11  1  0
 11 12  1  6
 12 13  1  0
 13 14  1  0
 13 15  1  0
 11 16  1  0
 16 17  2  0
 16 18  1  0
 18 19  1  0
 19 20  1  0
 20 21  1  0
 21 22  1  0
 22 23  1  6
 23 24  2  0
 23 25  1  0
 25 26  1  0
 26 27  1  1
 27 28  1  0
 28 29  1  0
 28 30  1  0
 26 31  1  0
 31 32  2  0
 31 33  1  0
 33 34  1  0
 34 35  1  1
 35 36  1  0
 36 37  1  0
 36 38  1  0
 34 39  1  0
 39 40  2  0
 39 41  1  0
 41 42  1  0
 42 43  1  0
 43 44  1  0
 44 45  1  0
 45 46  1  1
 46 47  2  0
 46 48  1  0
 48 49  1  0
 49 50  1  1
 50 51  1  0
 51 52  3  0
 49 53  1  0
 53 54  2  0
 53 55  1  0
 22 18  1  0
 45 41  1  0
M  END
$$$$

     RDKit          2D

 55 56  0  0  0  0  0  0  0  0999 V2000
    8.0260    1.2990    0.0000 N   0  0  0  0  0  0  0  0  0  0  0  0
    7.2760    0.0000    0.0000 C   0  0  0  0  0  0  0  0  0  0  0  0
    8.0260   -1.2990    0.0000 C   0  0  0  0  0  0  0  0  0  0  0  0
    9.5260   -1.2990    0.0000 C   0  0  0  0  0  0  0  0  0  0  0  0
   10.2760   -2.5981    0.0000 C   0  0  0  0  0  0  0  0  0  0  0  0
   10.2760    0.0000    0.0000 C   0  0  0  0  0  0  0  0  0  0  0  0
    5.7760    0.0000    0.0000 C   0  0  0  0  0  0  0  0  0  0  0  0
    5.0260   -1.2990    0.0000 O   0  0  0  0  0  0  0  0  0  0  0  0
    5.0260    1.2990    0.0000 N   0  0  0  0  0  0  0  0  0  0  0  0
    5.7760    2.5981    0.0000 C   0  0  0  0  0  0  0  0  0  0  0  0
    3.5260    1.2990    0.0000 C   0  0  0  0  0  0  0  0  0  0  0  0
    2.7760    2.5981    0.0000 C   0  0  0  0  0  0  0  0  0  0  0  0
    3.5260    3.8971    0.0000 C   0  0  0  0  0  0  0  0  0  0  0  0
    2.7760    5.1962    0.0000 C   0  0  0  0  0  0  0  0  0  0  0  0
    5.0260    3.8971    0.0000 C   0  0  0  0  0  0  0  0  0  0  0  0
    2.7760    0.0000    0.0000 C   0  0  0  0  0  0  0  0  0  0  0  0
    3.5260   -1.2990    0.0000 O   0  0  0  0  0  0  0  0  0  0  0  0
    1.2760    0.0000    0.0000 N   0  0  0  0  0  0  0  0  0  0  0  0
    0.3943    1.2135    0.0000 C   0  0  0  0  0  0  0  0  0  0  0  0
   -1.0323    0.7500    0.0000 C   0  0  0  0  0  0  0  0  0  0  0  0
   -1.0323   -0.7500    0.0000 C   0  0  0  0  0  0  0  0  0  0  0  0
    0.3943   -1.2135    0.0000 C   0  0  0  0  0  0  0  0  0  0  0  0
    0.8578   -2.6401    0.0000 C   0  0  0  0  0  0  0  0  0  0  0  0
    2.3250   -2.9520    0.0000 O   0  0  0  0  0  0  0  0  0  0  0  0
   -0.1459   -3.7548    0.0000 N   0  0  0  0  0  0  0  0  0  0  0  0
    0.3177   -5.1814    0.0000 C   0  0  0  0  0  0  0  0  0  0  0  0
   -0.6860   -6.2961    0.0000 C   0  0  0  0  0  0  0  0  0  0  0  0
   -0.2225   -7.7227    0.0000 C   0  0  0  0  0  0  0  0  0  0  0  0
   -1.2262   -8.8374    0.0000 C   0  0  0  0  0  0  0  0  0  0  0  0
    1.2447   -8.0346    0.0000 C   0  0  0  0  0  0  0  0  0  0  0  0
    1.7849   -5.4933    0.0000 C   0  0  0  0  0  0  0  0  0  0  0  0
    2.7886   -4.3786    0.0000 O   0  0  0  0  0  0  0  0  0  0  0  0
    2.2484   -6.9199    0.0000 N   0  0  0  0  0  0  0  0  0  0  0  0
    3.7156   -7.2317    0.0000 C   0  0  0  0  0  0  0  0  0  0  0  0
    4.1791   -8.6583    0.0000 C   0  0  0  0  0  0  0  0  0  0  0  0
    3.1755   -9.7730    0.0000 C   0  0  0  0  0  0  0  0  0  0  0  0
    3.6390  -11.1996    0.0000 C   0  0  0  0  0  0  0  0  0  0  0  0
    1.7082   -9.4612    0.0000 C   0  0  0  0  0  0  0  0  0  0  0  0
    4.7193   -6.1170    0.0000 C   0  0  0  0  0  0  0  0  0  0  0  0
    4.2558   -4.6904    0.0000 O   0  0  0  0  0  0  0  0  0  0  0  0
    6.1865   -6.4289    0.0000 N   0  0  0  0  0  0  0  0  0  0  0  0
    7.3013   -5.4252    0.0000 C   0  0  0  0  0  0  0  0  0  0  0  0
    8.6003   -6.1752    0.0000 C   0  0  0  0  0  0  0  0  0  0  0  0
    8.2884   -7.6424    0.0000 C   0  0  0  0  0  0  0  0  0  0  0  0
    6.7966   -7.7992    0.0000 C   0  0  0  0  0  0  0  0  0  0  0  0
    6.0466   -9.0982    0.0000 C   0  0  0  0  0  0  0  0  0  0  0  0
    4.5912   -9.4612    0.0000 O   0  0  0  0  0  0  0  0  0  0  0  0
    6.7966  -10.3973    0.0000 N   0  0  0  0  0  0  0  0  0  0  0  0
    6.0466  -11.6963    0.0000 C   0  0  0  0  0  0  0  0  0  0  0  0
    6.7966  -12.9954    0.0000 C   0  0  0  0  0  0  0  0  0  0  0  0
    6.0466  -14.2944    0.0000 C   0  0  0  0  0  0  0  0  0  0  0  0
    5.2966  -15.5934    0.0000 C   0  0  0  0  0  0  0  0  0  0  0  0
    4.5466  -11.6963    0.0000 C   0  0  0  0  0  0  0  0  0  0  0  0
    3.7966  -10.3973    0.0000 O   0  0  0  0  0  0  0  0  0  0  0  0
    3.7966  -12.9954    0.0000 O   0  0  0  0  0  0  0  0  0  0  0  0
  2  1  1  6
  2  3  1  0
  3  4  1  0
  4  5  1  0
  4  6  1  0
  2  7  1  0
  7  8  2  0
  7  9  1  0
  9 10  1  0
  9 11  1  0
 11 12  1  6
 12 13  1  0
 13 14  1  0
 13 15  1  0
 11 16  1  0
 16 17  2  0
 16 18  1  0
 18 19  1  0
 19 20  1  0
 20 21  1  0
 21 22  1  0
 22 23  1  6
 23 24  2  0
 23 25  1  0
 25 26  1  0
 26 27  1  1
 27 28  1  0
 28 29  1  0
 28 30  1  0
 26 31  1  0
 31 32  2  0
 31 33  1  0
 33 34  1  0
 34 35  1  1
 35 36  1  0
 36 37  1  0
 36 38  1  0
 34 39  1  0
 39 40  2  0
 39 41  1  0
 41 42  1  0
 42 43  1  0
 43 44  1  0
 44 45  1  0
 45 46  1  1
 46 47  2  0
 46 48  1  0
 48 49  1  0
 49 50  1  1
 50 51  1  0
 51 52  3  0
 49 53  1  0
 53 54  2  0
 53 55  1  0
 22 18  1  0
 45 41  1  0
M  END
$$$$

     RDKit          2D

 40 40  0  0  0  0  0  0  0  0999 V2000
   -1.7240    5.1962    0.0000 N   0  0  0  0  0  0  0  0  0  0  0  0
   -0.9740    3.8971    0.0000 C   0  0  0  0  0  0  0  0  0  0  0  0
   -1.7240    2.5981    0.0000 C   0  0  0  0  0  0  0  0  0  0  0  0
   -3.2240    2.5981    0.0000 C   0  0  0  0  0  0  0  0  0  0  0  0
   -3.9740    1.2990    0.0000 C   0  0  0  0  0  0  0  0  0  0  0  0
   -3.9740    3.8971    0.0000 C   0  0  0  0  0  0  0  0  0  0  0  0
    0.5260    3.8971    0.0000 C   0  0  0  0  0  0  0  0  0  0  0  0
    1.2760    2.5981    0.0000 O   0  0  0  0  0  0  0  0  0  0  0  0
    1.2760    5.1962    0.0000 N   0  0  0  0  0  0  0  0  0  0  0  0
    0.5260    6.4952    0.0000 C   0  0  0  0  0  0  0  0  0  0  0  0
    2.7760    5.1962    0.0000 C   0  0  0  0  0  0  0  0  0  0  0  0
    3.5260    6.4952    0.0000 C   0  0  0  0  0  0  0  0  0  0  0  0
    2.7760    7.7942    0.0000 C   0  0  0  0  0  0  0  0  0  0  0  0
    3.5260    9.0933    0.0000 C   0  0  0  0  0  0  0  0  0  0  0  0
    1.2760    7.7942    0.0000 C   0  0  0  0  0  0  0  0  0  0  0  0
    3.5260    3.8971    0.0000 C   0  0  0  0  0  0  0  0  0  0  0  0
    5.0260    3.8971    0.0000 O   0  0  0  0  0  0  0  0  0  0  0  0
    2.7760    2.5981    0.0000 N   0  0  0  0  0  0  0  0  0  0  0  0
    3.5260    1.2990    0.0000 C   0  0  0  0  0  0  0  0  0  0  0  0
    5.0260    1.2990    0.0000 C   0  0  0  0  0  0  0  0  0  0  0  0
    5.7760    0.0000    0.0000 C   0  0  0  0  0  0  0  0  0  0  0  0
    7.2760    0.0000    0.0000 C   0  0  0  0  0  0  0  0  0  0  0  0
    5.0260   -1.2990    0.0000 C   0  0  0  0  0  0  0  0  0  0  0  0
    2.7760    0.0000    0.0000 C   0  0  0  0  0  0  0  0  0  0  0  0
    3.5260   -1.2990    0.0000 O   0  0  0  0  0  0  0  0  0  0  0  0
    1.2760    0.0000    0.0000 N   0  0  0  0  0  0  0  0  0  0  0  0
    0.3943    1.2135    0.0000 C   0  0  0  0  0  0  0  0  0  0  0  0
   -1.0323    0.7500    0.0000 C   0  0  0  0  0  0  0  0  0  0  0  0
   -1.0323   -0.7500    0.0000 C   0  0  0  0  0  0  0  0  0  0  0  0
    0.3943   -1.2135    0.0000 C   0  0  0  0  0  0  0  0  0  0  0  0
    0.8578   -2.6401    0.0000 C   0  0  0  0  0  0  0  0  0  0  0  0
    2.3250   -2.9520    0.0000 O   0  0  0  0  0  0  0  0  0  0  0  0
   -0.1459   -3.7548    0.0000 N   0  0  0  0  0  0  0  0  0  0  0  0
    0.3177   -5.1814    0.0000 C   0  0  0  0  0  0  0  0  0  0  0  0
   -0.6860   -6.2961    0.0000 C   0  0  0  0  0  0  0  0  0  0  0  0
   -0.2225   -7.7227    0.0000 C   0  0  0  0  0  0  0  0  0  0  0  0
    0.2410   -9.1493    0.0000 C   0  0  0  0  0  0  0  0  0  0  0  0
    1.7849   -5.4933    0.0000 C   0  0  0  0  0  0  0  0  0  0  0  0
    2.7886   -4.3786    0.0000 O   0  0  0  0  0  0  0  0  0  0  0  0
    2.2484   -6.9199    0.0000 O   0  0  0  0  0  0  0  0  0  0  0  0
  2  1  1  6
  2  3  1  0
  3  4  1  0
  4  5  1  0
  4  6  1  0
  2  7  1  0
  7  8  2  0
  7  9  1  0
  9 10  1  0
  9 11  1  0
 11 12  1  1
 12 13  1  0
 13 14  1  0
 13 15  1  0
 11 16  1  0
 16 17  2  0
 16 18  1  0
 18 19  1  0
 19 20  1  6
 20 21  1  0
 21 22  1  0
 21 23  1  0
 19 24  1  0
 24 25  2  0
 24 26  1  0
 26 27  1  0
 27 28  1  0
 28 29  1  0
 29 30  1  0
 30 31  1  6
 31 32  2  0
 31 33  1  0
 33 34  1  0
 34 35  1  6
 35 36  1  0
 36 37  3  0
 34 38  1  0
 38 39  2  0
 38 40  1  0
 30 26  1  0
M  END
$$$$

     RDKit          2D

 40 40  0  0  0  0  0  0  0  0999 V2000
   -1.7240    5.1962    0.0000 N   0  0  0  0  0  0  0  0  0  0  0  0
   -0.9740    3.8971    0.0000 C   0  0  0  0  0  0  0  0  0  0  0  0
   -1.7240    2.5981    0.0000 C   0  0  0  0  0  0  0  0  0  0  0  0
   -3.2240    2.5981    0.0000 C   0  0  0  0  0  0  0  0  0  0  0  0
   -3.9740    1.2990    0.0000 C   0  0  0  0  0  0  0  0  0  0  0  0
   -3.9740    3.8971    0.0000 C   0  0  0  0  0  0  0  0  0  0  0  0
    0.5260    3.8971    0.0000 C   0  0  0  0  0  0  0  0  0  0  0  0
    1.2760    2.5981    0.0000 O   0  0  0  0  0  0  0  0  0  0  0  0
    1.2760    5.1962    0.0000 N   0  0  0  0  0  0  0  0  0  0  0  0
    0.5260    6.4952    0.0000 C   0  0  0  0  0  0  0  0  0  0  0  0
    2.7760    5.1962    0.0000 C   0  0  0  0  0  0  0  0  0  0  0  0
    3.5260    6.4952    0.0000 C   0  0  0  0  0  0  0  0  0  0  0  0
    2.7760    7.7942    0.0000 C   0  0  0  0  0  0  0  0  0  0  0  0
    3.5260    9.0933    0.0000 C   0  0  0  0  0  0  0  0  0  0  0  0
    1.2760    7.7942    0.0000 C   0  0  0  0  0  0  0  0  0  0  0  0
    3.5260    3.8971    0.0000 C   0  0  0  0  0  0  0  0  0  0  0  0
    5.0260    3.8971    0.0000 O   0  0  0  0  0  0  0  0  0  0  0  0
    2.7760    2.5981    0.0000 N   0  0  0  0  0  0  0  0  0  0  0  0
    3.5260    1.2990    0.0000 C   0  0  0  0  0  0  0  0  0  0  0  0
    5.0260    1.2990    0.0000 C   0  0  0  0  0  0  0  0  0  0  0  0
    5.7760    0.0000    0.0000 C   0  0  0  0  0  0  0  0  0  0  0  0
    7.2760    0.0000    0.0000 C   0  0  0  0  0  0  0  0  0  0  0  0
    5.0260   -1.2990    0.0000 C   0  0  0  0  0  0  0  0  0  0  0  0
    2.7760    0.0000    0.0000 C   0  0  0  0  0  0  0  0  0  0  0  0
    3.5260   -1.2990    0.0000 O   0  0  0  0  0  0  0  0  0  0  0  0
    1.2760    0.0000    0.0000 N   0  0  0  0  0  0  0  0  0  0  0  0
    0.3943    1.2135    0.0000 C   0  0  0  0  0  0  0  0  0  0  0  0
   -1.0323    0.7500    0.0000 C   0  0  0  0  0  0  0  0  0  0  0  0
   -1.0323   -0.7500    0.0000 C   0  0  0  0  0  0  0  0  0  0  0  0
    0.3943   -1.2135    0.0000 C   0  0  0  0  0  0  0  0  0  0  0  0
    0.8578   -2.6401    0.0000 C   0  0  0  0  0  0  0  0  0  0  0  0
    2.3250   -2.9520    0.0000 O   0  0  0  0  0  0  0  0  0  0  0  0
   -0.1459   -3.7548    0.0000 N   0  0  0  0  0  0  0  0  0  0  0  0
    0.3177   -5.1814    0.0000 C   0  0  0  0  0  0  0  0  0  0  0  0
   -0.6860   -6.2961    0.0000 C   0  0  0  0  0  0  0  0  0  0  0  0
   -0.2225   -7.7227    0.0000 C   0  0  0  0  0  0  0  0  0  0  0  0
    0.2410   -9.1493    0.0000 C   0  0  0  0  0  0  0  0  0  0  0  0
    1.7849   -5.4933    0.0000 C   0  0  0  0  0  0  0  0  0  0  0  0
    2.7886   -4.3786    0.0000 O   0  0  0  0  0  0  0  0  0  0  0  0
    2.2484   -6.9199    0.0000 O   0  0  0  0  0  0  0  0  0  0  0  0
  2  1  1  1
  2  3  1  0
  3  4  1  0
  4  5  1  0
  4  6  1  0
  2  7  1  0
  7  8  2  0
  7  9  1  0
  9 10  1  0
  9 11  1  0
 11 12  1  1
 12 13  1  0
 13 14  1  0
 13 15  1  0
 11 16  1  0
 16 17  2  0
 16 18  1  0
 18 19  1  0
 19 20  1  6
 20 21  1  0
 21 22  1  0
 21 23  1  0
 19 24  1  0
 24 25  2  0
 24 26  1  0
 26 27  1  0
 27 28  1  0
 28 29  1  0
 29 30  1  0
 30 31  1  6
 31 32  2  0
 31 33  1  0
 33 34  1  0
 34 35  1  6
 35 36  1  0
 36 37  3  0
 34 38  1  0
 38 39  2  0
 38 40  1  0
 30 26  1  0
M  END
$$$$

     RDKit          2D

 39 39  0  0  0  0  0  0  0  0999 V2000
    5.0260    9.0933    0.0000 N   0  0  0  0  0  0  0  0  0  0  0  0
    5.7760    7.7942    0.0000 C   0  0  0  0  0  0  0  0  0  0  0  0
    7.2760    7.7942    0.0000 C   0  0  0  0  0  0  0  0  0  0  0  0
    8.0260    9.0933    0.0000 C   0  0  0  0  0  0  0  0  0  0  0  0
    8.0260    6.4952    0.0000 C   0  0  0  0  0  0  0  0  0  0  0  0
    5.0260    6.4952    0.0000 C   0  0  0  0  0  0  0  0  0  0  0  0
    5.7760    5.1962    0.0000 O   0  0  0  0  0  0  0  0  0  0  0  0
    3.5260    6.4952    0.0000 N   0  0  0  0  0  0  0  0  0  0  0  0
    2.7760    7.7942    0.0000 C   0  0  0  0  0  0  0  0  0  0  0  0
    2.7760    5.1962    0.0000 C   0  0  0  0  0  0  0  0  0  0  0  0
    1.2760    5.1962    0.0000 C   0  0  0  0  0  0  0  0  0  0  0  0
    0.5260    6.4952    0.0000 C   0  0  0  0  0  0  0  0  0  0  0  0
   -0.9740    6.4952    0.0000 C   0  0  0  0  0  0  0  0  0  0  0  0
    1.2760    7.7942    0.0000 C   0  0  0  0  0  0  0  0  0  0  0  0
    3.5260    3.8971    0.0000 C   0  0  0  0  0  0  0  0  0  0  0  0
    5.0260    3.8971    0.0000 O   0  0  0  0  0  0  0  0  0  0  0  0
    2.7760    2.5981    0.0000 N   0  0  0  0  0  0  0  0  0  0  0  0
    3.5260    1.2990    0.0000 C   0  0  0  0  0  0  0  0  0  0  0  0
    5.0260    1.2990    0.0000 C   0  0  0  0  0  0  0  0  0  0  0  0
    5.7760    0.0000    0.0000 C   0  0  0  0  0  0  0  0  0  0  0  0
    7.2760    0.0000    0.0000 C   0  0  0  0  0  0  0  0  0  0  0  0
    5.0260   -1.2990    0.0000 C   0  0  0  0  0  0  0  0  0  0  0  0
    2.7760   -0.0000    0.0000 C   0  0  0  0  0  0  0  0  0  0  0  0
    3.5260   -1.2990    0.0000 O   0  0  0  0  0  0  0  0  0  0  0  0
    1.2760   -0.0000    0.0000 N   0  0  0  0  0  0  0  0  0  0  0  0
    0.3943    1.2135    0.0000 C   0  0  0  0  0  0  0  0  0  0  0  0
   -1.0323    0.7500    0.0000 C   0  0  0  0  0  0  0  0  0  0  0  0
   -1.0323   -0.7500    0.0000 C   0  0  0  0  0  0  0  0  0  0  0  0
    0.3943   -1.2135    0.0000 C   0  0  0  0  0  0  0  0  0  0  0  0
    0.8578   -2.6401    0.0000 C   0  0  0  0  0  0  0  0  0  0  0  0
    2.3250   -2.9520    0.0000 O   0  0  0  0  0  0  0  0  0  0  0  0
   -0.1459   -3.7548    0.0000 N   0  0  0  0  0  0  0  0  0  0  0  0
    0.3177   -5.1814    0.0000 C   0  0  0  0  0  0  0  0  0  0  0  0
   -0.6860   -6.2961    0.0000 C   0  0  0  0  0  0  0  0  0  0  0  0
   -0.2225   -7.7227    0.0000 C   0  0  0  0  0  0  0  0  0  0  0  0
    0.2410   -9.1493    0.0000 C   0  0  0  0  0  0  0  0  0  0  0  0
    1.7849   -5.4933    0.0000 C   0  0  0  0  0  0  0  0  0  0  0  0
    2.7886   -4.3786    0.0000 O   0  0  0  0  0  0  0  0  0  0  0  0
    2.2484   -6.9199    0.0000 O   0  0  0  0  0  0  0  0  0  0  0  0
  2  1  1  1
  2  3  1  0
  3  4  1  0
  3  5  1  0
  2  6  1  0
  6  7  2  0
  6  8  1  0
  8  9  1  0
  8 10  1  0
 10 11  1  6
 11 12  1  0
 12 13  1  0
 12 14  1  0
 10 15  1  0
 15 16  2  0
 15 17  1  0
 17 18  1  0
 18 19  1  6
 19 20  1  0
 20 21  1  0
 20 22  1  0
 18 23  1  0
 23 24  2  0
 23 25  1  0
 25 26  1  0
 26 27  1  0
 27 28  1  0
 28 29  1  0
 29 30  1  6
 30 31  2  0
 30 32  1  0
 32 33  1  0
 33 34  1  6
 34 35  1  0
 35 36  3  0
 33 37  1  0
 37 38  2  0
 37 39  1  0
 29 25  1  0
M  END
$$$$

     RDKit          2D

 39 39  0  0  0  0  0  0  0  0999 V2000
    5.0260    9.0933    0.0000 N   0  0  0  0  0  0  0  0  0  0  0  0
    5.7760    7.7942    0.0000 C   0  0  0  0  0  0  0  0  0  0  0  0
    7.2760    7.7942    0.0000 C   0  0  0  0  0  0  0  0  0  0  0  0
    8.0260    9.0933    0.0000 C   0  0  0  0  0  0  0  0  0  0  0  0
    8.0260    6.4952    0.0000 C   0  0  0  0  0  0  0  0  0  0  0  0
    5.0260    6.4952    0.0000 C   0  0  0  0  0  0  0  0  0  0  0  0
    5.7760    5.1962    0.0000 O   0  0  0  0  0  0  0  0  0  0  0  0
    3.5260    6.4952    0.0000 N   0  0  0  0  0  0  0  0  0  0  0  0
    2.7760    7.7942    0.0000 C   0  0  0  0  0  0  0  0  0  0  0  0
    2.7760    5.1962    0.0000 C   0  0  0  0  0  0  0  0  0  0  0  0
    1.2760    5.1962    0.0000 C   0  0  0  0  0  0  0  0  0  0  0  0
    0.5260    6.4952    0.0000 C   0  0  0  0  0  0  0  0  0  0  0  0
   -0.9740    6.4952    0.0000 C   0  0  0  0  0  0  0  0  0  0  0  0
    1.2760    7.7942    0.0000 C   0  0  0  0  0  0  0  0  0  0  0  0
    3.5260    3.8971    0.0000 C   0  0  0  0  0  0  0  0  0  0  0  0
    5.0260    3.8971    0.0000 O   0  0  0  0  0  0  0  0  0  0  0  0
    2.7760    2.5981    0.0000 N   0  0  0  0  0  0  0  0  0  0  0  0
    3.5260    1.2990    0.0000 C   0  0  0  0  0  0  0  0  0  0  0  0
    5.0260    1.2990    0.0000 C   0  0  0  0  0  0  0  0  0  0  0  0
    5.7760    0.0000    0.0000 C   0  0  0  0  0  0  0  0  0  0  0  0
    7.2760    0.0000    0.0000 C   0  0  0  0  0  0  0  0  0  0  0  0
    5.0260   -1.2990    0.0000 C   0  0  0  0  0  0  0  0  0  0  0  0
    2.7760   -0.0000    0.0000 C   0  0  0  0  0  0  0  0  0  0  0  0
    3.5260   -1.2990    0.0000 O   0  0  0  0  0  0  0  0  0  0  0  0
    1.2760   -0.0000    0.0000 N   0  0  0  0  0  0  0  0  0  0  0  0
    0.3943    1.2135    0.0000 C   0  0  0  0  0  0  0  0  0  0  0  0
   -1.0323    0.7500    0.0000 C   0  0  0  0  0  0  0  0  0  0  0  0
   -1.0323   -0.7500    0.0000 C   0  0  0  0  0  0  0  0  0  0  0  0
    0.3943   -1.2135    0.0000 C   0  0  0  0  0  0  0  0  0  0  0  0
    0.8578   -2.6401    0.0000 C   0  0  0  0  0  0  0  0  0  0  0  0
    2.3250   -2.9520    0.0000 O   0  0  0  0  0  0  0  0  0  0  0  0
   -0.1459   -3.7548    0.0000 N   0  0  0  0  0  0  0  0  0  0  0  0
    0.3177   -5.1814    0.0000 C   0  0  0  0  0  0  0  0  0  0  0  0
   -0.6860   -6.2961    0.0000 C   0  0  0  0  0  0  0  0  0  0  0  0
   -0.2225   -7.7227    0.0000 C   0  0  0  0  0  0  0  0  0  0  0  0
    0.2410   -9.1493    0.0000 C   0  0  0  0  0  0  0  0  0  0  0  0
    1.7849   -5.4933    0.0000 C   0  0  0  0  0  0  0  0  0  0  0  0
    2.7886   -4.3786    0.0000 O   0  0  0  0  0  0  0  0  0  0  0  0
    2.2484   -6.9199    0.0000 O   0  0  0  0  0  0  0  0  0  0  0  0
  2  1  1  6
  2  3  1  0
  3  4  1  0
  3  5  1  0
  2  6  1  0
  6  7  2  0
  6  8  1  0
  8  9  1  0
  8 10  1  0
 10 11  1  6
 11 12  1  0
 12 13  1  0
 12 14  1  0
 10 15  1  0
 15 16  2  0
 15 17  1  0
 17 18  1  0
 18 19  1  6
 19 20  1  0
 20 21  1  0
 20 22  1  0
 18 23  1  0
 23 24  2  0
 23 25  1  0
 25 26  1  0
 26 27  1  0
 27 28  1  0
 28 29  1  0
 29 30  1  6
 30 31  2  0
 30 32  1  0
 32 33  1  0
 33 34  1  6
 34 35  1  0
 35 36  3  0
 33 37  1  0
 37 38  2  0
 37 39  1  0
 29 25  1  0
M  END
$$$$

     RDKit          2D

 41 41  0  0  0  0  0  0  0  0999 V2000
   -1.7240    5.1962    0.0000 N   0  0  0  0  0  0  0  0  0  0  0  0
   -3.2240    5.1962    0.0000 C   0  0  0  0  0  0  0  0  0  0  0  0
   -0.9740    3.8971    0.0000 C   0  0  0  0  0  0  0  0  0  0  0  0
   -1.7240    2.5981    0.0000 C   0  0  0  0  0  0  0  0  0  0  0  0
   -3.2240    2.5981    0.0000 C   0  0  0  0  0  0  0  0  0  0  0  0
   -3.9740    1.2990    0.0000 C   0  0  0  0  0  0  0  0  0  0  0  0
   -3.9740    3.8971    0.0000 C   0  0  0  0  0  0  0  0  0  0  0  0
    0.5260    3.8971    0.0000 C   0  0  0  0  0  0  0  0  0  0  0  0
    1.2760    2.5981    0.0000 O   0  0  0  0  0  0  0  0  0  0  0  0
    1.2760    5.1962    0.0000 N   0  0  0  0  0  0  0  0  0  0  0  0
    0.5260    6.4952    0.0000 C   0  0  0  0  0  0  0  0  0  0  0  0
    2.7760    5.1962    0.0000 C   0  0  0  0  0  0  0  0  0  0  0  0
    3.5260    6.4952    0.0000 C   0  0  0  0  0  0  0  0  0  0  0  0
    2.7760    7.7942    0.0000 C   0  0  0  0  0  0  0  0  0  0  0  0
    3.5260    9.0933    0.0000 C   0  0  0  0  0  0  0  0  0  0  0  0
    1.2760    7.7942    0.0000 C   0  0  0  0  0  0  0  0  0  0  0  0
    3.5260    3.8971    0.0000 C   0  0  0  0  0  0  0  0  0  0  0  0
    5.0260    3.8971    0.0000 O   0  0  0  0  0  0  0  0  0  0  0  0
    2.7760    2.5981    0.0000 N   0  0  0  0  0  0  0  0  0  0  0  0
    3.5260    1.2990    0.0000 C   0  0  0  0  0  0  0  0  0  0  0  0
    5.0260    1.2990    0.0000 C   0  0  0  0  0  0  0  0  0  0  0  0
    5.7760    0.0000    0.0000 C   0  0  0  0  0  0  0  0  0  0  0  0
    5.0260   -1.2990    0.0000 C   0  0  0  0  0  0  0  0  0  0  0  0
    7.2760    0.0000    0.0000 C   0  0  0  0  0  0  0  0  0  0  0  0
    2.7760    0.0000    0.0000 C   0  0  0  0  0  0  0  0  0  0  0  0
    3.5260   -1.2990    0.0000 O   0  0  0  0  0  0  0  0  0  0  0  0
    1.2760    0.0000    0.0000 N   0  0  0  0  0  0  0  0  0  0  0  0
    0.3943    1.2135    0.0000 C   0  0  0  0  0  0  0  0  0  0  0  0
   -1.0323    0.7500    0.0000 C   0  0  0  0  0  0  0  0  0  0  0  0
   -1.0323   -0.7500    0.0000 C   0  0  0  0  0  0  0  0  0  0  0  0
    0.3943   -1.2135    0.0000 C   0  0  0  0  0  0  0  0  0  0  0  0
    0.8578   -2.6401    0.0000 C   0  0  0  0  0  0  0  0  0  0  0  0
    2.3250   -2.9520    0.0000 O   0  0  0  0  0  0  0  0  0  0  0  0
   -0.1459   -3.7548    0.0000 N   0  0  0  0  0  0  0  0  0  0  0  0
    0.3177   -5.1814    0.0000 C   0  0  0  0  0  0  0  0  0  0  0  0
   -0.6860   -6.2961    0.0000 C   0  0  0  0  0  0  0  0  0  0  0  0
   -0.2225   -7.7227    0.0000 C   0  0  0  0  0  0  0  0  0  0  0  0
    0.2410   -9.1493    0.0000 C   0  0  0  0  0  0  0  0  0  0  0  0
    1.7849   -5.4933    0.0000 C   0  0  0  0  0  0  0  0  0  0  0  0
    2.7886   -4.3786    0.0000 O   0  0  0  0  0  0  0  0  0  0  0  0
    2.2484   -6.9199    0.0000 O   0  0  0  0  0  0  0  0  0  0  0  0
  1  2  1  0
  1  3  1  0
  3  4  1  6
  4  5  1  0
  5  6  1  0
  5  7  1  0
  3  8  1  0
  8  9  2  0
  8 10  1  0
 10 11  1  0
 10 12  1  0
 12 13  1  1
 13 14  1  0
 14 15  1  0
 14 16  1  0
 12 17  1  0
 17 18  2  0
 17 19  1  0
 19 20  1  0
 20 21  1  6
 21 22  1  0
 22 23  1  0
 22 24  1  0
 20 25  1  0
 25 26  2  0
 25 27  1  0
 27 28  1  0
 28 29  1  0
 29 30  1  0
 30 31  1  0
 31 32  1  6
 32 33  2  0
 32 34  1  0
 34 35  1  0
 35 36  1  6
 36 37  1  0
 37 38  3  0
 35 39  1  0
 39 40  2  0
 39 41  1  0
 31 27  1  0
M  END
$$$$

     RDKit          2D

 41 41  0  0  0  0  0  0  0  0999 V2000
   -1.7240    5.1962    0.0000 N   0  0  0  0  0  0  0  0  0  0  0  0
   -3.2240    5.1962    0.0000 C   0  0  0  0  0  0  0  0  0  0  0  0
   -0.9740    3.8971    0.0000 C   0  0  0  0  0  0  0  0  0  0  0  0
   -1.7240    2.5981    0.0000 C   0  0  0  0  0  0  0  0  0  0  0  0
   -3.2240    2.5981    0.0000 C   0  0  0  0  0  0  0  0  0  0  0  0
   -3.9740    1.2990    0.0000 C   0  0  0  0  0  0  0  0  0  0  0  0
   -3.9740    3.8971    0.0000 C   0  0  0  0  0  0  0  0  0  0  0  0
    0.5260    3.8971    0.0000 C   0  0  0  0  0  0  0  0  0  0  0  0
    1.2760    2.5981    0.0000 O   0  0  0  0  0  0  0  0  0  0  0  0
    1.2760    5.1962    0.0000 N   0  0  0  0  0  0  0  0  0  0  0  0
    0.5260    6.4952    0.0000 C   0  0  0  0  0  0  0  0  0  0  0  0
    2.7760    5.1962    0.0000 C   0  0  0  0  0  0  0  0  0  0  0  0
    3.5260    6.4952    0.0000 C   0  0  0  0  0  0  0  0  0  0  0  0
    2.7760    7.7942    0.0000 C   0  0  0  0  0  0  0  0  0  0  0  0
    3.5260    9.0933    0.0000 C   0  0  0  0  0  0  0  0  0  0  0  0
    1.2760    7.7942    0.0000 C   0  0  0  0  0  0  0  0  0  0  0  0
    3.5260    3.8971    0.0000 C   0  0  0  0  0  0  0  0  0  0  0  0
    5.0260    3.8971    0.0000 O   0  0  0  0  0  0  0  0  0  0  0  0
    2.7760    2.5981    0.0000 N   0  0  0  0  0  0  0  0  0  0  0  0
    3.5260    1.2990    0.0000 C   0  0  0  0  0  0  0  0  0  0  0  0
    5.0260    1.2990    0.0000 C   0  0  0  0  0  0  0  0  0  0  0  0
    5.7760    0.0000    0.0000 C   0  0  0  0  0  0  0  0  0  0  0  0
    5.0260   -1.2990    0.0000 C   0  0  0  0  0  0  0  0  0  0  0  0
    7.2760    0.0000    0.0000 C   0  0  0  0  0  0  0  0  0  0  0  0
    2.7760    0.0000    0.0000 C   0  0  0  0  0  0  0  0  0  0  0  0
    3.5260   -1.2990    0.0000 O   0  0  0  0  0  0  0  0  0  0  0  0
    1.2760    0.0000    0.0000 N   0  0  0  0  0  0  0  0  0  0  0  0
    0.3943    1.2135    0.0000 C   0  0  0  0  0  0  0  0  0  0  0  0
   -1.0323    0.7500    0.0000 C   0  0  0  0  0  0  0  0  0  0  0  0
   -1.0323   -0.7500    0.0000 C   0  0  0  0  0  0  0  0  0  0  0  0
    0.3943   -1.2135    0.0000 C   0  0  0  0  0  0  0  0  0  0  0  0
    0.8578   -2.6401    0.0000 C   0  0  0  0  0  0  0  0  0  0  0  0
    2.3250   -2.9520    0.0000 O   0  0  0  0  0  0  0  0  0  0  0  0
   -0.1459   -3.7548    0.0000 N   0  0  0  0  0  0  0  0  0  0  0  0
    0.3177   -5.1814    0.0000 C   0  0  0  0  0  0  0  0  0  0  0  0
   -0.6860   -6.2961    0.0000 C   0  0  0  0  0  0  0  0  0  0  0  0
   -0.2225   -7.7227    0.0000 C   0  0  0  0  0  0  0  0  0  0  0  0
    0.2410   -9.1493    0.0000 C   0  0  0  0  0  0  0  0  0  0  0  0
    1.7849   -5.4933    0.0000 C   0  0  0  0  0  0  0  0  0  0  0  0
    2.7886   -4.3786    0.0000 O   0  0  0  0  0  0  0  0  0  0  0  0
    2.2484   -6.9199    0.0000 O   0  0  0  0  0  0  0  0  0  0  0  0
  1  2  1  0
  1  3  1  0
  3  4  1  1
  4  5  1  0
  5  6  1  0
  5  7  1  0
  3  8  1  0
  8  9  2  0
  8 10  1  0
 10 11  1  0
 10 12  1  0
 12 13  1  1
 13 14  1  0
 14 15  1  0
 14 16  1  0
 12 17  1  0
 17 18  2  0
 17 19  1  0
 19 20  1  0
 20 21  1  6
 21 22  1  0
 22 23  1  0
 22 24  1  0
 20 25  1  0
 25 26  2  0
 25 27  1  0
 27 28  1  0
 28 29  1  0
 29 30  1  0
 30 31  1  0
 31 32  1  6
 32 33  2  0
 32 34  1  0
 34 35  1  0
 35 36  1  6
 36 37  1  0
 37 38  3  0
 35 39  1  0
 39 40  2  0
 39 41  1  0
 31 27  1  0
M  END
$$$$

     RDKit          2D

 43 44  0  0  0  0  0  0  0  0999 V2000
    1.5000   -7.7942    0.0000 N   0  0  0  0  0  0  0  0  0  0  0  0
    0.7500   -9.0933    0.0000 C   0  0  0  0  0  0  0  0  0  0  0  0
    1.5000  -10.3923    0.0000 C   0  0  0  0  0  0  0  0  0  0  0  0
    3.0000  -10.3923    0.0000 C   0  0  0  0  0  0  0  0  0  0  0  0
    3.7500  -11.6913    0.0000 C   0  0  0  0  0  0  0  0  0  0  0  0
    5.2500  -11.6913    0.0000 C   0  0  0  0  0  0  0  0  0  0  0  0
    6.0000  -10.3923    0.0000 C   0  0  0  0  0  0  0  0  0  0  0  0
    5.2500   -9.0933    0.0000 C   0  0  0  0  0  0  0  0  0  0  0  0
    3.7500   -9.0933    0.0000 C   0  0  0  0  0  0  0  0  0  0  0  0
   -0.7500   -9.0933    0.0000 C   0  0  0  0  0  0  0  0  0  0  0  0
   -1.5000  -10.3923    0.0000 O   0  0  0  0  0  0  0  0  0  0  0  0
   -1.5000   -7.7942    0.0000 N   0  0  0  0  0  0  0  0  0  0  0  0
   -3.0000   -7.7942    0.0000 C   0  0  0  0  0  0  0  0  0  0  0  0
   -0.7500   -6.4952    0.0000 C   0  0  0  0  0  0  0  0  0  0  0  0
    0.7500   -6.4952    0.0000 C   0  0  0  0  0  0  0  0  0  0  0  0
    1.5000   -5.1962    0.0000 C   0  0  0  0  0  0  0  0  0  0  0  0
    3.0000   -5.1962    0.0000 C   0  0  0  0  0  0  0  0  0  0  0  0
    0.7500   -3.8971    0.0000 C   0  0  0  0  0  0  0  0  0  0  0  0
   -1.5000   -5.1962    0.0000 C   0  0  0  0  0  0  0  0  0  0  0  0
   -0.7500   -3.8971    0.0000 O   0  0  0  0  0  0  0  0  0  0  0  0
   -3.0000   -5.1962    0.0000 N   0  0  0  0  0  0  0  0  0  0  0  0
   -3.7500   -3.8971    0.0000 C   0  0  0  0  0  0  0  0  0  0  0  0
   -5.2500   -3.8971    0.0000 C   0  0  0  0  0  0  0  0  0  0  0  0
   -6.0000   -5.1962    0.0000 C   0  0  0  0  0  0  0  0  0  0  0  0
   -7.5000   -5.1962    0.0000 C   0  0  0  0  0  0  0  0  0  0  0  0
   -5.2500   -6.4952    0.0000 C   0  0  0  0  0  0  0  0  0  0  0  0
   -3.0000   -2.5981    0.0000 C   0  0  0  0  0  0  0  0  0  0  0  0
   -1.5000   -2.5981    0.0000 O   0  0  0  0  0  0  0  0  0  0  0  0
   -3.7500   -1.2990    0.0000 N   0  0  0  0  0  0  0  0  0  0  0  0
   -5.2418   -1.1422    0.0000 C   0  0  0  0  0  0  0  0  0  0  0  0
   -5.5537    0.3250    0.0000 C   0  0  0  0  0  0  0  0  0  0  0  0
   -4.2546    1.0750    0.0000 C   0  0  0  0  0  0  0  0  0  0  0  0
   -3.1399    0.0713    0.0000 C   0  0  0  0  0  0  0  0  0  0  0  0
   -1.6727    0.3831    0.0000 C   0  0  0  0  0  0  0  0  0  0  0  0
   -0.6690   -0.7316    0.0000 O   0  0  0  0  0  0  0  0  0  0  0  0
   -1.2091    1.8097    0.0000 N   0  0  0  0  0  0  0  0  0  0  0  0
    0.2581    2.1216    0.0000 C   0  0  0  0  0  0  0  0  0  0  0  0
    0.7216    3.5482    0.0000 C   0  0  0  0  0  0  0  0  0  0  0  0
    2.1888    3.8601    0.0000 C   0  0  0  0  0  0  0  0  0  0  0  0
    3.6560    4.1719    0.0000 C   0  0  0  0  0  0  0  0  0  0  0  0
    1.2618    1.0069    0.0000 C   0  0  0  0  0  0  0  0  0  0  0  0
    0.7982   -0.4197    0.0000 O   0  0  0  0  0  0  0  0  0  0  0  0
    2.7290    1.3188    0.0000 O   0  0  0  0  0  0  0  0  0  0  0  0
  2  1  1  1
  2  3  1  0
  3  4  1  0
  4  5  2  0
  5  6  1  0
  6  7  2  0
  7  8  1  0
  8  9  2  0
  2 10  1  0
 10 11  2  0
 10 12  1  0
 12 13  1  0
 12 14  1  0
 14 15  1  6
 15 16  1  0
 16 17  1  0
 16 18  1  0
 14 19  1  0
 19 20  2  0
 19 21  1  0
 21 22  1  0
 22 23  1  6
 23 24  1  0
 24 25  1  0
 24 26  1  0
 22 27  1  0
 27 28  2  0
 27 29  1  0
 29 30  1  0
 30 31  1  0
 31 32  1  0
 32 33  1  0
 33 34  1  1
 34 35  2  0
 34 36  1  0
 36 37  1  0
 37 38  1  1
 38 39  1  0
 39 40  3  0
 37 41  1  0
 41 42  2  0
 41 43  1  0
  9  4  1  0
 33 29  1  0
M  END
$$$$

     RDKit          2D

 43 44  0  0  0  0  0  0  0  0999 V2000
    1.5000   -7.7942    0.0000 N   0  0  0  0  0  0  0  0  0  0  0  0
    0.7500   -9.0933    0.0000 C   0  0  0  0  0  0  0  0  0  0  0  0
    1.5000  -10.3923    0.0000 C   0  0  0  0  0  0  0  0  0  0  0  0
    3.0000  -10.3923    0.0000 C   0  0  0  0  0  0  0  0  0  0  0  0
    3.7500  -11.6913    0.0000 C   0  0  0  0  0  0  0  0  0  0  0  0
    5.2500  -11.6913    0.0000 C   0  0  0  0  0  0  0  0  0  0  0  0
    6.0000  -10.3923    0.0000 C   0  0  0  0  0  0  0  0  0  0  0  0
    5.2500   -9.0933    0.0000 C   0  0  0  0  0  0  0  0  0  0  0  0
    3.7500   -9.0933    0.0000 C   0  0  0  0  0  0  0  0  0  0  0  0
   -0.7500   -9.0933    0.0000 C   0  0  0  0  0  0  0  0  0  0  0  0
   -1.5000  -10.3923    0.0000 O   0  0  0  0  0  0  0  0  0  0  0  0
   -1.5000   -7.7942    0.0000 N   0  0  0  0  0  0  0  0  0  0  0  0
   -3.0000   -7.7942    0.0000 C   0  0  0  0  0  0  0  0  0  0  0  0
   -0.7500   -6.4952    0.0000 C   0  0  0  0  0  0  0  0  0  0  0  0
    0.7500   -6.4952    0.0000 C   0  0  0  0  0  0  0  0  0  0  0  0
    1.5000   -5.1962    0.0000 C   0  0  0  0  0  0  0  0  0  0  0  0
    3.0000   -5.1962    0.0000 C   0  0  0  0  0  0  0  0  0  0  0  0
    0.7500   -3.8971    0.0000 C   0  0  0  0  0  0  0  0  0  0  0  0
   -1.5000   -5.1962    0.0000 C   0  0  0  0  0  0  0  0  0  0  0  0
   -0.7500   -3.8971    0.0000 O   0  0  0  0  0  0  0  0  0  0  0  0
   -3.0000   -5.1962    0.0000 N   0  0  0  0  0  0  0  0  0  0  0  0
   -3.7500   -3.8971    0.0000 C   0  0  0  0  0  0  0  0  0  0  0  0
   -5.2500   -3.8971    0.0000 C   0  0  0  0  0  0  0  0  0  0  0  0
   -6.0000   -5.1962    0.0000 C   0  0  0  0  0  0  0  0  0  0  0  0
   -7.5000   -5.1962    0.0000 C   0  0  0  0  0  0  0  0  0  0  0  0
   -5.2500   -6.4952    0.0000 C   0  0  0  0  0  0  0  0  0  0  0  0
   -3.0000   -2.5981    0.0000 C   0  0  0  0  0  0  0  0  0  0  0  0
   -1.5000   -2.5981    0.0000 O   0  0  0  0  0  0  0  0  0  0  0  0
   -3.7500   -1.2990    0.0000 N   0  0  0  0  0  0  0  0  0  0  0  0
   -5.2418   -1.1422    0.0000 C   0  0  0  0  0  0  0  0  0  0  0  0
   -5.5537    0.3250    0.0000 C   0  0  0  0  0  0  0  0  0  0  0  0
   -4.2546    1.0750    0.0000 C   0  0  0  0  0  0  0  0  0  0  0  0
   -3.1399    0.0713    0.0000 C   0  0  0  0  0  0  0  0  0  0  0  0
   -1.6727    0.3831    0.0000 C   0  0  0  0  0  0  0  0  0  0  0  0
   -0.6690   -0.7316    0.0000 O   0  0  0  0  0  0  0  0  0  0  0  0
   -1.2091    1.8097    0.0000 N   0  0  0  0  0  0  0  0  0  0  0  0
    0.2581    2.1216    0.0000 C   0  0  0  0  0  0  0  0  0  0  0  0
    0.7216    3.5482    0.0000 C   0  0  0  0  0  0  0  0  0  0  0  0
    2.1888    3.8601    0.0000 C   0  0  0  0  0  0  0  0  0  0  0  0
    3.6560    4.1719    0.0000 C   0  0  0  0  0  0  0  0  0  0  0  0
    1.2618    1.0069    0.0000 C   0  0  0  0  0  0  0  0  0  0  0  0
    0.7982   -0.4197    0.0000 O   0  0  0  0  0  0  0  0  0  0  0  0
    2.7290    1.3188    0.0000 O   0  0  0  0  0  0  0  0  0  0  0  0
  2  1  1  6
  2  3  1  0
  3  4  1  0
  4  5  2  0
  5  6  1  0
  6  7  2  0
  7  8  1  0
  8  9  2  0
  2 10  1  0
 10 11  2  0
 10 12  1  0
 12 13  1  0
 12 14  1  0
 14 15  1  6
 15 16  1  0
 16 17  1  0
 16 18  1  0
 14 19  1  0
 19 20  2  0
 19 21  1  0
 21 22  1  0
 22 23  1  6
 23 24  1  0
 24 25  1  0
 24 26  1  0
 22 27  1  0
 27 28  2  0
 27 29  1  0
 29 30  1  0
 30 31  1  0
 31 32  1  0
 32 33  1  0
 33 34  1  1
 34 35  2  0
 34 36  1  0
 36 37  1  0
 37 38  1  1
 38 39  1  0
 39 40  3  0
 37 41  1  0
 41 42  2  0
 41 43  1  0
  9  4  1  0
 33 29  1  0
M  END
$$$$

     RDKit          2D

 44 45  0  0  0  0  0  0  0  0999 V2000
    3.7500   -6.4952    0.0000 N   0  0  0  0  0  0  0  0  0  0  0  0
    3.0000   -5.1962    0.0000 C   0  0  0  0  0  0  0  0  0  0  0  0
    3.0000   -7.7942    0.0000 C   0  0  0  0  0  0  0  0  0  0  0  0
    3.7500   -9.0933    0.0000 C   0  0  0  0  0  0  0  0  0  0  0  0
    5.2500   -9.0933    0.0000 C   0  0  0  0  0  0  0  0  0  0  0  0
    6.0000  -10.3923    0.0000 C   0  0  0  0  0  0  0  0  0  0  0  0
    7.5000  -10.3923    0.0000 C   0  0  0  0  0  0  0  0  0  0  0  0
    8.2500   -9.0933    0.0000 C   0  0  0  0  0  0  0  0  0  0  0  0
    7.5000   -7.7942    0.0000 C   0  0  0  0  0  0  0  0  0  0  0  0
    6.0000   -7.7942    0.0000 C   0  0  0  0  0  0  0  0  0  0  0  0
    1.5000   -7.7942    0.0000 C   0  0  0  0  0  0  0  0  0  0  0  0
    0.7500   -9.0933    0.0000 O   0  0  0  0  0  0  0  0  0  0  0  0
    0.7500   -6.4952    0.0000 N   0  0  0  0  0  0  0  0  0  0  0  0
    1.5000   -5.1962    0.0000 C   0  0  0  0  0  0  0  0  0  0  0  0
   -0.7500   -6.4952    0.0000 C   0  0  0  0  0  0  0  0  0  0  0  0
   -1.5000   -7.7942    0.0000 C   0  0  0  0  0  0  0  0  0  0  0  0
   -3.0000   -7.7942    0.0000 C   0  0  0  0  0  0  0  0  0  0  0  0
   -3.7500   -9.0933    0.0000 C   0  0  0  0  0  0  0  0  0  0  0  0
   -3.7500   -6.4952    0.0000 C   0  0  0  0  0  0  0  0  0  0  0  0
   -1.5000   -5.1962    0.0000 C   0  0  0  0  0  0  0  0  0  0  0  0
   -0.7500   -3.8971    0.0000 O   0  0  0  0  0  0  0  0  0  0  0  0
   -3.0000   -5.1962    0.0000 N   0  0  0  0  0  0  0  0  0  0  0  0
   -3.7500   -3.8971    0.0000 C   0  0  0  0  0  0  0  0  0  0  0  0
   -5.2500   -3.8971    0.0000 C   0  0  0  0  0  0  0  0  0  0  0  0
   -6.0000   -5.1962    0.0000 C   0  0  0  0  0  0  0  0  0  0  0  0
   -7.5000   -5.1962    0.0000 C   0  0  0  0  0  0  0  0  0  0  0  0
   -5.2500   -6.4952    0.0000 C   0  0  0  0  0  0  0  0  0  0  0  0
   -3.0000   -2.5981    0.0000 C   0  0  0  0  0  0  0  0  0  0  0  0
   -1.5000   -2.5981    0.0000 O   0  0  0  0  0  0  0  0  0  0  0  0
   -3.7500   -1.2990    0.0000 N   0  0  0  0  0  0  0  0  0  0  0  0
   -5.2418   -1.1422    0.0000 C   0  0  0  0  0  0  0  0  0  0  0  0
   -5.5537    0.3250    0.0000 C   0  0  0  0  0  0  0  0  0  0  0  0
   -4.2546    1.0750    0.0000 C   0  0  0  0  0  0  0  0  0  0  0  0
   -3.1399    0.0713    0.0000 C   0  0  0  0  0  0  0  0  0  0  0  0
   -1.6727    0.3831    0.0000 C   0  0  0  0  0  0  0  0  0  0  0  0
   -0.6690   -0.7316    0.0000 O   0  0  0  0  0  0  0  0  0  0  0  0
   -1.2091    1.8097    0.0000 N   0  0  0  0  0  0  0  0  0  0  0  0
    0.2581    2.1216    0.0000 C   0  0  0  0  0  0  0  0  0  0  0  0
    0.7216    3.5482    0.0000 C   0  0  0  0  0  0  0  0  0  0  0  0
    2.1888    3.8601    0.0000 C   0  0  0  0  0  0  0  0  0  0  0  0
    3.6560    4.1719    0.0000 C   0  0  0  0  0  0  0  0  0  0  0  0
    1.2618    1.0069    0.0000 C   0  0  0  0  0  0  0  0  0  0  0  0
    0.7982   -0.4197    0.0000 O   0  0  0  0  0  0  0  0  0  0  0  0
    2.7290    1.3188    0.0000 O   0  0  0  0  0  0  0  0  0  0  0  0
  1  2  1  0
  1  3  1  0
  3  4  1  1
  4  5  1  0
  5  6  2  0
  6  7  1  0
  7  8  2  0
  8  9  1  0
  9 10  2  0
  3 11  1  0
 11 12  2  0
 11 13  1  0
 13 14  1  0
 13 15  1  0
 15 16  1  1
 16 17  1  0
 17 18  1  0
 17 19  1  0
 15 20  1  0
 20 21  2  0
 20 22  1  0
 22 23  1  0
 23 24  1  6
 24 25  1  0
 25 26  1  0
 25 27  1  0
 23 28  1  0
 28 29  2  0
 28 30  1  0
 30 31  1  0
 31 32  1  0
 32 33  1  0
 33 34  1  0
 34 35  1  1
 35 36  2  0
 35 37  1  0
 37 38  1  0
 38 39  1  1
 39 40  1  0
 40 41  3  0
 38 42  1  0
 42 43  2  0
 42 44  1  0
 10  5  1  0
 34 30  1  0
M  END
$$$$

     RDKit          2D

 44 45  0  0  0  0  0  0  0  0999 V2000
    3.7500   -6.4952    0.0000 N   0  0  0  0  0  0  0  0  0  0  0  0
    3.0000   -5.1962    0.0000 C   0  0  0  0  0  0  0  0  0  0  0  0
    3.0000   -7.7942    0.0000 C   0  0  0  0  0  0  0  0  0  0  0  0
    3.7500   -9.0933    0.0000 C   0  0  0  0  0  0  0  0  0  0  0  0
    5.2500   -9.0933    0.0000 C   0  0  0  0  0  0  0  0  0  0  0  0
    6.0000  -10.3923    0.0000 C   0  0  0  0  0  0  0  0  0  0  0  0
    7.5000  -10.3923    0.0000 C   0  0  0  0  0  0  0  0  0  0  0  0
    8.2500   -9.0933    0.0000 C   0  0  0  0  0  0  0  0  0  0  0  0
    7.5000   -7.7942    0.0000 C   0  0  0  0  0  0  0  0  0  0  0  0
    6.0000   -7.7942    0.0000 C   0  0  0  0  0  0  0  0  0  0  0  0
    1.5000   -7.7942    0.0000 C   0  0  0  0  0  0  0  0  0  0  0  0
    0.7500   -9.0933    0.0000 O   0  0  0  0  0  0  0  0  0  0  0  0
    0.7500   -6.4952    0.0000 N   0  0  0  0  0  0  0  0  0  0  0  0
    1.5000   -5.1962    0.0000 C   0  0  0  0  0  0  0  0  0  0  0  0
   -0.7500   -6.4952    0.0000 C   0  0  0  0  0  0  0  0  0  0  0  0
   -1.5000   -7.7942    0.0000 C   0  0  0  0  0  0  0  0  0  0  0  0
   -3.0000   -7.7942    0.0000 C   0  0  0  0  0  0  0  0  0  0  0  0
   -3.7500   -9.0933    0.0000 C   0  0  0  0  0  0  0  0  0  0  0  0
   -3.7500   -6.4952    0.0000 C   0  0  0  0  0  0  0  0  0  0  0  0
   -1.5000   -5.1962    0.0000 C   0  0  0  0  0  0  0  0  0  0  0  0
   -0.7500   -3.8971    0.0000 O   0  0  0  0  0  0  0  0  0  0  0  0
   -3.0000   -5.1962    0.0000 N   0  0  0  0  0  0  0  0  0  0  0  0
   -3.7500   -3.8971    0.0000 C   0  0  0  0  0  0  0  0  0  0  0  0
   -5.2500   -3.8971    0.0000 C   0  0  0  0  0  0  0  0  0  0  0  0
   -6.0000   -5.1962    0.0000 C   0  0  0  0  0  0  0  0  0  0  0  0
   -7.5000   -5.1962    0.0000 C   0  0  0  0  0  0  0  0  0  0  0  0
   -5.2500   -6.4952    0.0000 C   0  0  0  0  0  0  0  0  0  0  0  0
   -3.0000   -2.5981    0.0000 C   0  0  0  0  0  0  0  0  0  0  0  0
   -1.5000   -2.5981    0.0000 O   0  0  0  0  0  0  0  0  0  0  0  0
   -3.7500   -1.2990    0.0000 N   0  0  0  0  0  0  0  0  0  0  0  0
   -5.2418   -1.1422    0.0000 C   0  0  0  0  0  0  0  0  0  0  0  0
   -5.5537    0.3250    0.0000 C   0  0  0  0  0  0  0  0  0  0  0  0
   -4.2546    1.0750    0.0000 C   0  0  0  0  0  0  0  0  0  0  0  0
   -3.1399    0.0713    0.0000 C   0  0  0  0  0  0  0  0  0  0  0  0
   -1.6727    0.3831    0.0000 C   0  0  0  0  0  0  0  0  0  0  0  0
   -0.6690   -0.7316    0.0000 O   0  0  0  0  0  0  0  0  0  0  0  0
   -1.2091    1.8097    0.0000 N   0  0  0  0  0  0  0  0  0  0  0  0
    0.2581    2.1216    0.0000 C   0  0  0  0  0  0  0  0  0  0  0  0
    0.7216    3.5482    0.0000 C   0  0  0  0  0  0  0  0  0  0  0  0
    2.1888    3.8601    0.0000 C   0  0  0  0  0  0  0  0  0  0  0  0
    3.6560    4.1719    0.0000 C   0  0  0  0  0  0  0  0  0  0  0  0
    1.2618    1.0069    0.0000 C   0  0  0  0  0  0  0  0  0  0  0  0
    0.7982   -0.4197    0.0000 O   0  0  0  0  0  0  0  0  0  0  0  0
    2.7290    1.3188    0.0000 O   0  0  0  0  0  0  0  0  0  0  0  0
  1  2  1  0
  1  3  1  0
  3  4  1  6
  4  5  1  0
  5  6  2  0
  6  7  1  0
  7  8  2  0
  8  9  1  0
  9 10  2  0
  3 11  1  0
 11 12  2  0
 11 13  1  0
 13 14  1  0
 13 15  1  0
 15 16  1  1
 16 17  1  0
 17 18  1  0
 17 19  1  0
 15 20  1  0
 20 21  2  0
 20 22  1  0
 22 23  1  0
 23 24  1  6
 24 25  1  0
 25 26  1  0
 25 27  1  0
 23 28  1  0
 28 29  2  0
 28 30  1  0
 30 31  1  0
 31 32  1  0
 32 33  1  0
 33 34  1  0
 34 35  1  1
 35 36  2  0
 35 37  1  0
 37 38  1  0
 38 39  1  1
 39 40  1  0
 40 41  3  0
 38 42  1  0
 42 43  2  0
 42 44  1  0
 10  5  1  0
 34 30  1  0
M  END
$$$$

     RDKit          2D

 39 39  0  0  0  0  0  0  0  0999 V2000
    5.0260    9.0933    0.0000 N   0  0  0  0  0  0  0  0  0  0  0  0
    5.7760    7.7942    0.0000 C   0  0  0  0  0  0  0  0  0  0  0  0
    7.2760    7.7942    0.0000 C   0  0  0  0  0  0  0  0  0  0  0  0
    8.0260    6.4952    0.0000 O   0  0  0  0  0  0  0  0  0  0  0  0
    8.0260    9.0933    0.0000 C   0  0  0  0  0  0  0  0  0  0  0  0
    5.0260    6.4952    0.0000 C   0  0  0  0  0  0  0  0  0  0  0  0
    5.7760    5.1962    0.0000 O   0  0  0  0  0  0  0  0  0  0  0  0
    3.5260    6.4952    0.0000 N   0  0  0  0  0  0  0  0  0  0  0  0
    2.7760    7.7942    0.0000 C   0  0  0  0  0  0  0  0  0  0  0  0
    2.7760    5.1962    0.0000 C   0  0  0  0  0  0  0  0  0  0  0  0
    1.2760    5.1962    0.0000 C   0  0  0  0  0  0  0  0  0  0  0  0
    0.5260    6.4952    0.0000 C   0  0  0  0  0  0  0  0  0  0  0  0
   -0.9740    6.4952    0.0000 C   0  0  0  0  0  0  0  0  0  0  0  0
    1.2760    7.7942    0.0000 C   0  0  0  0  0  0  0  0  0  0  0  0
    3.5260    3.8971    0.0000 C   0  0  0  0  0  0  0  0  0  0  0  0
    5.0260    3.8971    0.0000 O   0  0  0  0  0  0  0  0  0  0  0  0
    2.7760    2.5981    0.0000 N   0  0  0  0  0  0  0  0  0  0  0  0
    3.5260    1.2990    0.0000 C   0  0  0  0  0  0  0  0  0  0  0  0
    5.0260    1.2990    0.0000 C   0  0  0  0  0  0  0  0  0  0  0  0
    5.7760    0.0000    0.0000 C   0  0  0  0  0  0  0  0  0  0  0  0
    7.2760    0.0000    0.0000 C   0  0  0  0  0  0  0  0  0  0  0  0
    5.0260   -1.2990    0.0000 C   0  0  0  0  0  0  0  0  0  0  0  0
    2.7760   -0.0000    0.0000 C   0  0  0  0  0  0  0  0  0  0  0  0
    3.5260   -1.2990    0.0000 O   0  0  0  0  0  0  0  0  0  0  0  0
    1.2760   -0.0000    0.0000 N   0  0  0  0  0  0  0  0  0  0  0  0
    0.3943    1.2135    0.0000 C   0  0  0  0  0  0  0  0  0  0  0  0
   -1.0323    0.7500    0.0000 C   0  0  0  0  0  0  0  0  0  0  0  0
   -1.0323   -0.7500    0.0000 C   0  0  0  0  0  0  0  0  0  0  0  0
    0.3943   -1.2135    0.0000 C   0  0  0  0  0  0  0  0  0  0  0  0
    0.8578   -2.6401    0.0000 C   0  0  0  0  0  0  0  0  0  0  0  0
    2.3250   -2.9520    0.0000 O   0  0  0  0  0  0  0  0  0  0  0  0
   -0.1459   -3.7548    0.0000 N   0  0  0  0  0  0  0  0  0  0  0  0
    0.3177   -5.1814    0.0000 C   0  0  0  0  0  0  0  0  0  0  0  0
   -0.6860   -6.2961    0.0000 C   0  0  0  0  0  0  0  0  0  0  0  0
   -0.2225   -7.7227    0.0000 C   0  0  0  0  0  0  0  0  0  0  0  0
    0.2410   -9.1493    0.0000 C   0  0  0  0  0  0  0  0  0  0  0  0
    1.7849   -5.4933    0.0000 C   0  0  0  0  0  0  0  0  0  0  0  0
    2.7886   -4.3786    0.0000 O   0  0  0  0  0  0  0  0  0  0  0  0
    2.2484   -6.9199    0.0000 O   0  0  0  0  0  0  0  0  0  0  0  0
  2  1  1  1
  2  3  1  0
  3  4  1  0
  3  5  1  1
  2  6  1  0
  6  7  2  0
  6  8  1  0
  8  9  1  0
  8 10  1  0
 10 11  1  6
 11 12  1  0
 12 13  1  0
 12 14  1  0
 10 15  1  0
 15 16  2  0
 15 17  1  0
 17 18  1  0
 18 19  1  6
 19 20  1  0
 20 21  1  0
 20 22  1  0
 18 23  1  0
 23 24  2  0
 23 25  1  0
 25 26  1  0
 26 27  1  0
 27 28  1  0
 28 29  1  0
 29 30  1  6
 30 31  2  0
 30 32  1  0
 32 33  1  0
 33 34  1  6
 34 35  1  0
 35 36  3  0
 33 37  1  0
 37 38  2  0
 37 39  1  0
 29 25  1  0
M  END
$$$$

     RDKit          2D

 39 39  0  0  0  0  0  0  0  0999 V2000
    5.0260    9.0933    0.0000 N   0  0  0  0  0  0  0  0  0  0  0  0
    5.7760    7.7942    0.0000 C   0  0  0  0  0  0  0  0  0  0  0  0
    7.2760    7.7942    0.0000 C   0  0  0  0  0  0  0  0  0  0  0  0
    8.0260    6.4952    0.0000 O   0  0  0  0  0  0  0  0  0  0  0  0
    8.0260    9.0933    0.0000 C   0  0  0  0  0  0  0  0  0  0  0  0
    5.0260    6.4952    0.0000 C   0  0  0  0  0  0  0  0  0  0  0  0
    5.7760    5.1962    0.0000 O   0  0  0  0  0  0  0  0  0  0  0  0
    3.5260    6.4952    0.0000 N   0  0  0  0  0  0  0  0  0  0  0  0
    2.7760    7.7942    0.0000 C   0  0  0  0  0  0  0  0  0  0  0  0
    2.7760    5.1962    0.0000 C   0  0  0  0  0  0  0  0  0  0  0  0
    1.2760    5.1962    0.0000 C   0  0  0  0  0  0  0  0  0  0  0  0
    0.5260    6.4952    0.0000 C   0  0  0  0  0  0  0  0  0  0  0  0
   -0.9740    6.4952    0.0000 C   0  0  0  0  0  0  0  0  0  0  0  0
    1.2760    7.7942    0.0000 C   0  0  0  0  0  0  0  0  0  0  0  0
    3.5260    3.8971    0.0000 C   0  0  0  0  0  0  0  0  0  0  0  0
    5.0260    3.8971    0.0000 O   0  0  0  0  0  0  0  0  0  0  0  0
    2.7760    2.5981    0.0000 N   0  0  0  0  0  0  0  0  0  0  0  0
    3.5260    1.2990    0.0000 C   0  0  0  0  0  0  0  0  0  0  0  0
    5.0260    1.2990    0.0000 C   0  0  0  0  0  0  0  0  0  0  0  0
    5.7760    0.0000    0.0000 C   0  0  0  0  0  0  0  0  0  0  0  0
    7.2760    0.0000    0.0000 C   0  0  0  0  0  0  0  0  0  0  0  0
    5.0260   -1.2990    0.0000 C   0  0  0  0  0  0  0  0  0  0  0  0
    2.7760   -0.0000    0.0000 C   0  0  0  0  0  0  0  0  0  0  0  0
    3.5260   -1.2990    0.0000 O   0  0  0  0  0  0  0  0  0  0  0  0
    1.2760   -0.0000    0.0000 N   0  0  0  0  0  0  0  0  0  0  0  0
    0.3943    1.2135    0.0000 C   0  0  0  0  0  0  0  0  0  0  0  0
   -1.0323    0.7500    0.0000 C   0  0  0  0  0  0  0  0  0  0  0  0
   -1.0323   -0.7500    0.0000 C   0  0  0  0  0  0  0  0  0  0  0  0
    0.3943   -1.2135    0.0000 C   0  0  0  0  0  0  0  0  0  0  0  0
    0.8578   -2.6401    0.0000 C   0  0  0  0  0  0  0  0  0  0  0  0
    2.3250   -2.9520    0.0000 O   0  0  0  0  0  0  0  0  0  0  0  0
   -0.1459   -3.7548    0.0000 N   0  0  0  0  0  0  0  0  0  0  0  0
    0.3177   -5.1814    0.0000 C   0  0  0  0  0  0  0  0  0  0  0  0
   -0.6860   -6.2961    0.0000 C   0  0  0  0  0  0  0  0  0  0  0  0
   -0.2225   -7.7227    0.0000 C   0  0  0  0  0  0  0  0  0  0  0  0
    0.2410   -9.1493    0.0000 C   0  0  0  0  0  0  0  0  0  0  0  0
    1.7849   -5.4933    0.0000 C   0  0  0  0  0  0  0  0  0  0  0  0
    2.7886   -4.3786    0.0000 O   0  0  0  0  0  0  0  0  0  0  0  0
    2.2484   -6.9199    0.0000 O   0  0  0  0  0  0  0  0  0  0  0  0
  2  1  1  6
  2  3  1  0
  3  4  1  0
  3  5  1  1
  2  6  1  0
  6  7  2  0
  6  8  1  0
  8  9  1  0
  8 10  1  0
 10 11  1  6
 11 12  1  0
 12 13  1  0
 12 14  1  0
 10 15  1  0
 15 16  2  0
 15 17  1  0
 17 18  1  0
 18 19  1  6
 19 20  1  0
 20 21  1  0
 20 22  1  0
 18 23  1  0
 23 24  2  0
 23 25  1  0
 25 26  1  0
 26 27  1  0
 27 28  1  0
 28 29  1  0
 29 30  1  6
 30 31  2  0
 30 32  1  0
 32 33  1  0
 33 34  1  6
 34 35  1  0
 35 36  3  0
 33 37  1  0
 37 38  2  0
 37 39  1  0
 29 25  1  0
M  END
$$$$

     RDKit          2D

 40 40  0  0  0  0  0  0  0  0999 V2000
    5.0260    9.0933    0.0000 N   0  0  0  0  0  0  0  0  0  0  0  0
    5.7760   10.3923    0.0000 C   0  0  0  0  0  0  0  0  0  0  0  0
    5.7760    7.7942    0.0000 C   0  0  0  0  0  0  0  0  0  0  0  0
    7.2760    7.7942    0.0000 C   0  0  0  0  0  0  0  0  0  0  0  0
    8.0260    6.4952    0.0000 O   0  0  0  0  0  0  0  0  0  0  0  0
    8.0260    9.0933    0.0000 C   0  0  0  0  0  0  0  0  0  0  0  0
    5.0260    6.4952    0.0000 C   0  0  0  0  0  0  0  0  0  0  0  0
    5.7760    5.1962    0.0000 O   0  0  0  0  0  0  0  0  0  0  0  0
    3.5260    6.4952    0.0000 N   0  0  0  0  0  0  0  0  0  0  0  0
    2.7760    7.7942    0.0000 C   0  0  0  0  0  0  0  0  0  0  0  0
    2.7760    5.1962    0.0000 C   0  0  0  0  0  0  0  0  0  0  0  0
    1.2760    5.1962    0.0000 C   0  0  0  0  0  0  0  0  0  0  0  0
    0.5260    6.4952    0.0000 C   0  0  0  0  0  0  0  0  0  0  0  0
   -0.9740    6.4952    0.0000 C   0  0  0  0  0  0  0  0  0  0  0  0
    1.2760    7.7942    0.0000 C   0  0  0  0  0  0  0  0  0  0  0  0
    3.5260    3.8971    0.0000 C   0  0  0  0  0  0  0  0  0  0  0  0
    5.0260    3.8971    0.0000 O   0  0  0  0  0  0  0  0  0  0  0  0
    2.7760    2.5981    0.0000 N   0  0  0  0  0  0  0  0  0  0  0  0
    3.5260    1.2990    0.0000 C   0  0  0  0  0  0  0  0  0  0  0  0
    5.0260    1.2990    0.0000 C   0  0  0  0  0  0  0  0  0  0  0  0
    5.7760    0.0000    0.0000 C   0  0  0  0  0  0  0  0  0  0  0  0
    5.0260   -1.2990    0.0000 C   0  0  0  0  0  0  0  0  0  0  0  0
    7.2760    0.0000    0.0000 C   0  0  0  0  0  0  0  0  0  0  0  0
    2.7760   -0.0000    0.0000 C   0  0  0  0  0  0  0  0  0  0  0  0
    3.5260   -1.2990    0.0000 O   0  0  0  0  0  0  0  0  0  0  0  0
    1.2760   -0.0000    0.0000 N   0  0  0  0  0  0  0  0  0  0  0  0
    0.3943    1.2135    0.0000 C   0  0  0  0  0  0  0  0  0  0  0  0
   -1.0323    0.7500    0.0000 C   0  0  0  0  0  0  0  0  0  0  0  0
   -1.0323   -0.7500    0.0000 C   0  0  0  0  0  0  0  0  0  0  0  0
    0.3943   -1.2135    0.0000 C   0  0  0  0  0  0  0  0  0  0  0  0
    0.8578   -2.6401    0.0000 C   0  0  0  0  0  0  0  0  0  0  0  0
    2.3250   -2.9520    0.0000 O   0  0  0  0  0  0  0  0  0  0  0  0
   -0.1459   -3.7548    0.0000 N   0  0  0  0  0  0  0  0  0  0  0  0
    0.3177   -5.1814    0.0000 C   0  0  0  0  0  0  0  0  0  0  0  0
   -0.6860   -6.2961    0.0000 C   0  0  0  0  0  0  0  0  0  0  0  0
   -0.2225   -7.7227    0.0000 C   0  0  0  0  0  0  0  0  0  0  0  0
    0.2410   -9.1493    0.0000 C   0  0  0  0  0  0  0  0  0  0  0  0
    1.7849   -5.4933    0.0000 C   0  0  0  0  0  0  0  0  0  0  0  0
    2.7886   -4.3786    0.0000 O   0  0  0  0  0  0  0  0  0  0  0  0
    2.2484   -6.9199    0.0000 O   0  0  0  0  0  0  0  0  0  0  0  0
  1  2  1  0
  3  1  1  1
  3  4  1  0
  4  5  1  0
  4  6  1  1
  3  7  1  0
  7  8  2  0
  7  9  1  0
  9 10  1  0
  9 11  1  0
 11 12  1  6
 12 13  1  0
 13 14  1  0
 13 15  1  0
 11 16  1  0
 16 17  2  0
 16 18  1  0
 18 19  1  0
 19 20  1  6
 20 21  1  0
 21 22  1  0
 21 23  1  0
 19 24  1  0
 24 25  2  0
 24 26  1  0
 26 27  1  0
 27 28  1  0
 28 29  1  0
 29 30  1  0
 30 31  1  6
 31 32  2  0
 31 33  1  0
 33 34  1  0
 34 35  1  6
 35 36  1  0
 36 37  3  0
 34 38  1  0
 38 39  2  0
 38 40  1  0
 30 26  1  0
M  END
$$$$

     RDKit          2D

 40 40  0  0  0  0  0  0  0  0999 V2000
    5.0260    9.0933    0.0000 N   0  0  0  0  0  0  0  0  0  0  0  0
    5.7760   10.3923    0.0000 C   0  0  0  0  0  0  0  0  0  0  0  0
    5.7760    7.7942    0.0000 C   0  0  0  0  0  0  0  0  0  0  0  0
    7.2760    7.7942    0.0000 C   0  0  0  0  0  0  0  0  0  0  0  0
    8.0260    6.4952    0.0000 O   0  0  0  0  0  0  0  0  0  0  0  0
    8.0260    9.0933    0.0000 C   0  0  0  0  0  0  0  0  0  0  0  0
    5.0260    6.4952    0.0000 C   0  0  0  0  0  0  0  0  0  0  0  0
    5.7760    5.1962    0.0000 O   0  0  0  0  0  0  0  0  0  0  0  0
    3.5260    6.4952    0.0000 N   0  0  0  0  0  0  0  0  0  0  0  0
    2.7760    7.7942    0.0000 C   0  0  0  0  0  0  0  0  0  0  0  0
    2.7760    5.1962    0.0000 C   0  0  0  0  0  0  0  0  0  0  0  0
    1.2760    5.1962    0.0000 C   0  0  0  0  0  0  0  0  0  0  0  0
    0.5260    6.4952    0.0000 C   0  0  0  0  0  0  0  0  0  0  0  0
   -0.9740    6.4952    0.0000 C   0  0  0  0  0  0  0  0  0  0  0  0
    1.2760    7.7942    0.0000 C   0  0  0  0  0  0  0  0  0  0  0  0
    3.5260    3.8971    0.0000 C   0  0  0  0  0  0  0  0  0  0  0  0
    5.0260    3.8971    0.0000 O   0  0  0  0  0  0  0  0  0  0  0  0
    2.7760    2.5981    0.0000 N   0  0  0  0  0  0  0  0  0  0  0  0
    3.5260    1.2990    0.0000 C   0  0  0  0  0  0  0  0  0  0  0  0
    5.0260    1.2990    0.0000 C   0  0  0  0  0  0  0  0  0  0  0  0
    5.7760    0.0000    0.0000 C   0  0  0  0  0  0  0  0  0  0  0  0
    5.0260   -1.2990    0.0000 C   0  0  0  0  0  0  0  0  0  0  0  0
    7.2760    0.0000    0.0000 C   0  0  0  0  0  0  0  0  0  0  0  0
    2.7760   -0.0000    0.0000 C   0  0  0  0  0  0  0  0  0  0  0  0
    3.5260   -1.2990    0.0000 O   0  0  0  0  0  0  0  0  0  0  0  0
    1.2760   -0.0000    0.0000 N   0  0  0  0  0  0  0  0  0  0  0  0
    0.3943    1.2135    0.0000 C   0  0  0  0  0  0  0  0  0  0  0  0
   -1.0323    0.7500    0.0000 C   0  0  0  0  0  0  0  0  0  0  0  0
   -1.0323   -0.7500    0.0000 C   0  0  0  0  0  0  0  0  0  0  0  0
    0.3943   -1.2135    0.0000 C   0  0  0  0  0  0  0  0  0  0  0  0
    0.8578   -2.6401    0.0000 C   0  0  0  0  0  0  0  0  0  0  0  0
    2.3250   -2.9520    0.0000 O   0  0  0  0  0  0  0  0  0  0  0  0
   -0.1459   -3.7548    0.0000 N   0  0  0  0  0  0  0  0  0  0  0  0
    0.3177   -5.1814    0.0000 C   0  0  0  0  0  0  0  0  0  0  0  0
   -0.6860   -6.2961    0.0000 C   0  0  0  0  0  0  0  0  0  0  0  0
   -0.2225   -7.7227    0.0000 C   0  0  0  0  0  0  0  0  0  0  0  0
    0.2410   -9.1493    0.0000 C   0  0  0  0  0  0  0  0  0  0  0  0
    1.7849   -5.4933    0.0000 C   0  0  0  0  0  0  0  0  0  0  0  0
    2.7886   -4.3786    0.0000 O   0  0  0  0  0  0  0  0  0  0  0  0
    2.2484   -6.9199    0.0000 O   0  0  0  0  0  0  0  0  0  0  0  0
  1  2  1  0
  3  1  1  6
  3  4  1  0
  4  5  1  0
  4  6  1  1
  3  7  1  0
  7  8  2  0
  7  9  1  0
  9 10  1  0
  9 11  1  0
 11 12  1  6
 12 13  1  0
 13 14  1  0
 13 15  1  0
 11 16  1  0
 16 17  2  0
 16 18  1  0
 18 19  1  0
 19 20  1  6
 20 21  1  0
 21 22  1  0
 21 23  1  0
 19 24  1  0
 24 25  2  0
 24 26  1  0
 26 27  1  0
 27 28  1  0
 28 29  1  0
 29 30  1  0
 30 31  1  6
 31 32  2  0
 31 33  1  0
 33 34  1  0
 34 35  1  6
 35 36  1  0
 36 37  3  0
 34 38  1  0
 38 39  2  0
 38 40  1  0
 30 26  1  0
M  END
$$$$

     RDKit          2D

 40 40  0  0  0  0  0  0  0  0999 V2000
   -1.7240    2.5981    0.0000 N   0  0  0  0  0  0  0  0  0  0  0  0
   -3.2240    2.5981    0.0000 C   0  0  0  0  0  0  0  0  0  0  0  0
   -3.9740    1.2990    0.0000 C   0  0  0  0  0  0  0  0  0  0  0  0
   -5.4740    1.2990    0.0000 C   0  0  0  0  0  0  0  0  0  0  0  0
   -3.2240   -0.0000    0.0000 C   0  0  0  0  0  0  0  0  0  0  0  0
   -0.9740    3.8971    0.0000 C   0  0  0  0  0  0  0  0  0  0  0  0
    0.5260    3.8971    0.0000 C   0  0  0  0  0  0  0  0  0  0  0  0
    1.2760    2.5981    0.0000 O   0  0  0  0  0  0  0  0  0  0  0  0
    1.2760    5.1962    0.0000 N   0  0  0  0  0  0  0  0  0  0  0  0
    0.5260    6.4952    0.0000 C   0  0  0  0  0  0  0  0  0  0  0  0
    2.7760    5.1962    0.0000 C   0  0  0  0  0  0  0  0  0  0  0  0
    3.5260    6.4952    0.0000 C   0  0  0  0  0  0  0  0  0  0  0  0
    2.7760    7.7942    0.0000 C   0  0  0  0  0  0  0  0  0  0  0  0
    3.5260    9.0933    0.0000 C   0  0  0  0  0  0  0  0  0  0  0  0
    1.2760    7.7942    0.0000 C   0  0  0  0  0  0  0  0  0  0  0  0
    3.5260    3.8971    0.0000 C   0  0  0  0  0  0  0  0  0  0  0  0
    5.0260    3.8971    0.0000 O   0  0  0  0  0  0  0  0  0  0  0  0
    2.7760    2.5981    0.0000 N   0  0  0  0  0  0  0  0  0  0  0  0
    3.5260    1.2990    0.0000 C   0  0  0  0  0  0  0  0  0  0  0  0
    5.0260    1.2990    0.0000 C   0  0  0  0  0  0  0  0  0  0  0  0
    5.7760    0.0000    0.0000 C   0  0  0  0  0  0  0  0  0  0  0  0
    5.0260   -1.2990    0.0000 C   0  0  0  0  0  0  0  0  0  0  0  0
    7.2760    0.0000    0.0000 C   0  0  0  0  0  0  0  0  0  0  0  0
    2.7760    0.0000    0.0000 C   0  0  0  0  0  0  0  0  0  0  0  0
    3.5260   -1.2990    0.0000 O   0  0  0  0  0  0  0  0  0  0  0  0
    1.2760    0.0000    0.0000 N   0  0  0  0  0  0  0  0  0  0  0  0
    0.3943    1.2135    0.0000 C   0  0  0  0  0  0  0  0  0  0  0  0
   -1.0323    0.7500    0.0000 C   0  0  0  0  0  0  0  0  0  0  0  0
   -1.0323   -0.7500    0.0000 C   0  0  0  0  0  0  0  0  0  0  0  0
    0.3943   -1.2135    0.0000 C   0  0  0  0  0  0  0  0  0  0  0  0
    0.8578   -2.6401    0.0000 C   0  0  0  0  0  0  0  0  0  0  0  0
    2.3250   -2.9520    0.0000 O   0  0  0  0  0  0  0  0  0  0  0  0
   -0.1459   -3.7548    0.0000 N   0  0  0  0  0  0  0  0  0  0  0  0
    0.3177   -5.1814    0.0000 C   0  0  0  0  0  0  0  0  0  0  0  0
   -0.6860   -6.2961    0.0000 C   0  0  0  0  0  0  0  0  0  0  0  0
   -0.2225   -7.7227    0.0000 C   0  0  0  0  0  0  0  0  0  0  0  0
    0.2410   -9.1493    0.0000 C   0  0  0  0  0  0  0  0  0  0  0  0
    1.7849   -5.4933    0.0000 C   0  0  0  0  0  0  0  0  0  0  0  0
    2.7886   -4.3786    0.0000 O   0  0  0  0  0  0  0  0  0  0  0  0
    2.2484   -6.9199    0.0000 O   0  0  0  0  0  0  0  0  0  0  0  0
  1  2  1  0
  2  3  1  0
  3  4  1  0
  3  5  1  0
  1  6  1  0
  6  7  1  0
  7  8  2  0
  7  9  1  0
  9 10  1  0
  9 11  1  0
 11 12  1  1
 12 13  1  0
 13 14  1  0
 13 15  1  0
 11 16  1  0
 16 17  2  0
 16 18  1  0
 18 19  1  0
 19 20  1  6
 20 21  1  0
 21 22  1  0
 21 23  1  0
 19 24  1  0
 24 25  2  0
 24 26  1  0
 26 27  1  0
 27 28  1  0
 28 29  1  0
 29 30  1  0
 30 31  1  6
 31 32  2  0
 31 33  1  0
 33 34  1  0
 34 35  1  6
 35 36  1  0
 36 37  3  0
 34 38  1  0
 38 39  2  0
 38 40  1  0
 30 26  1  0
M  END
$$$$

     RDKit          2D

 43 43  0  0  0  0  0  0  0  0999 V2000
   -1.7240    2.5981    0.0000 N   0  0  0  0  0  0  0  0  0  0  0  0
   -3.2240    2.5981    0.0000 C   0  0  0  0  0  0  0  0  0  0  0  0
   -3.9740    1.2990    0.0000 C   0  0  0  0  0  0  0  0  0  0  0  0
   -5.4740    1.2990    0.0000 C   0  0  0  0  0  0  0  0  0  0  0  0
   -6.2240   -0.0000    0.0000 O   0  0  0  0  0  0  0  0  0  0  0  0
   -7.7240   -0.0000    0.0000 C   0  0  0  0  0  0  0  0  0  0  0  0
   -8.4740   -1.2990    0.0000 C   0  0  0  0  0  0  0  0  0  0  0  0
   -8.4740    1.2990    0.0000 C   0  0  0  0  0  0  0  0  0  0  0  0
   -0.9740    3.8971    0.0000 C   0  0  0  0  0  0  0  0  0  0  0  0
    0.5260    3.8971    0.0000 C   0  0  0  0  0  0  0  0  0  0  0  0
    1.2760    2.5981    0.0000 O   0  0  0  0  0  0  0  0  0  0  0  0
    1.2760    5.1962    0.0000 N   0  0  0  0  0  0  0  0  0  0  0  0
    0.5260    6.4952    0.0000 C   0  0  0  0  0  0  0  0  0  0  0  0
    2.7760    5.1962    0.0000 C   0  0  0  0  0  0  0  0  0  0  0  0
    3.5260    6.4952    0.0000 C   0  0  0  0  0  0  0  0  0  0  0  0
    2.7760    7.7942    0.0000 C   0  0  0  0  0  0  0  0  0  0  0  0
    3.5260    9.0933    0.0000 C   0  0  0  0  0  0  0  0  0  0  0  0
    1.2760    7.7942    0.0000 C   0  0  0  0  0  0  0  0  0  0  0  0
    3.5260    3.8971    0.0000 C   0  0  0  0  0  0  0  0  0  0  0  0
    5.0260    3.8971    0.0000 O   0  0  0  0  0  0  0  0  0  0  0  0
    2.7760    2.5981    0.0000 N   0  0  0  0  0  0  0  0  0  0  0  0
    3.5260    1.2990    0.0000 C   0  0  0  0  0  0  0  0  0  0  0  0
    5.0260    1.2990    0.0000 C   0  0  0  0  0  0  0  0  0  0  0  0
    5.7760    0.0000    0.0000 C   0  0  0  0  0  0  0  0  0  0  0  0
    7.2760    0.0000    0.0000 C   0  0  0  0  0  0  0  0  0  0  0  0
    5.0260   -1.2990    0.0000 C   0  0  0  0  0  0  0  0  0  0  0  0
    2.7760    0.0000    0.0000 C   0  0  0  0  0  0  0  0  0  0  0  0
    3.5260   -1.2990    0.0000 O   0  0  0  0  0  0  0  0  0  0  0  0
    1.2760    0.0000    0.0000 N   0  0  0  0  0  0  0  0  0  0  0  0
    0.3943    1.2135    0.0000 C   0  0  0  0  0  0  0  0  0  0  0  0
   -1.0323    0.7500    0.0000 C   0  0  0  0  0  0  0  0  0  0  0  0
   -1.0323   -0.7500    0.0000 C   0  0  0  0  0  0  0  0  0  0  0  0
    0.3943   -1.2135    0.0000 C   0  0  0  0  0  0  0  0  0  0  0  0
    0.8578   -2.6401    0.0000 C   0  0  0  0  0  0  0  0  0  0  0  0
    2.3250   -2.9520    0.0000 O   0  0  0  0  0  0  0  0  0  0  0  0
   -0.1459   -3.7548    0.0000 N   0  0  0  0  0  0  0  0  0  0  0  0
    0.3177   -5.1814    0.0000 C   0  0  0  0  0  0  0  0  0  0  0  0
   -0.6860   -6.2961    0.0000 C   0  0  0  0  0  0  0  0  0  0  0  0
   -0.2225   -7.7227    0.0000 C   0  0  0  0  0  0  0  0  0  0  0  0
    0.2410   -9.1493    0.0000 C   0  0  0  0  0  0  0  0  0  0  0  0
    1.7849   -5.4933    0.0000 C   0  0  0  0  0  0  0  0  0  0  0  0
    2.7886   -4.3786    0.0000 O   0  0  0  0  0  0  0  0  0  0  0  0
    2.2484   -6.9199    0.0000 O   0  0  0  0  0  0  0  0  0  0  0  0
  1  2  1  0
  2  3  1  0
  3  4  1  0
  4  5  1  0
  5  6  1  0
  6  7  1  0
  6  8  1  0
  1  9  1  0
  9 10  1  0
 10 11  2  0
 10 12  1  0
 12 13  1  0
 12 14  1  0
 14 15  1  1
 15 16  1  0
 16 17  1  0
 16 18  1  0
 14 19  1  0
 19 20  2  0
 19 21  1  0
 21 22  1  0
 22 23  1  6
 23 24  1  0
 24 25  1  0
 24 26  1  0
 22 27  1  0
 27 28  2  0
 27 29  1  0
 29 30  1  0
 30 31  1  0
 31 32  1  0
 32 33  1  0
 33 34  1  6
 34 35  2  0
 34 36  1  0
 36 37  1  0
 37 38  1  6
 38 39  1  0
 39 40  3  0
 37 41  1  0
 41 42  2  0
 41 43  1  0
 33 29  1  0
M  END
$$$$

     RDKit          2D

 45 46  0  0  0  0  0  0  0  0999 V2000
    0.7500   -6.4952    0.0000 N   0  0  0  0  0  0  0  0  0  0  0  0
    1.5000   -5.1962    0.0000 C   0  0  0  0  0  0  0  0  0  0  0  0
    0.7500   -3.8971    0.0000 C   0  0  0  0  0  0  0  0  0  0  0  0
    1.5000   -2.5981    0.0000 O   0  0  0  0  0  0  0  0  0  0  0  0
    0.7500   -1.2990    0.0000 C   0  0  0  0  0  0  0  0  0  0  0  0
    1.5000    0.0000    0.0000 C   0  0  0  0  0  0  0  0  0  0  0  0
    0.7500    1.2990    0.0000 C   0  0  0  0  0  0  0  0  0  0  0  0
   -0.7500    1.2990    0.0000 C   0  0  0  0  0  0  0  0  0  0  0  0
   -1.5000    0.0000    0.0000 C   0  0  0  0  0  0  0  0  0  0  0  0
   -0.7500   -1.2990    0.0000 C   0  0  0  0  0  0  0  0  0  0  0  0
    1.5000   -7.7942    0.0000 C   0  0  0  0  0  0  0  0  0  0  0  0
    0.7500   -9.0933    0.0000 C   0  0  0  0  0  0  0  0  0  0  0  0
   -0.7500   -9.0933    0.0000 O   0  0  0  0  0  0  0  0  0  0  0  0
    1.5000  -10.3923    0.0000 N   0  0  0  0  0  0  0  0  0  0  0  0
    0.7500  -11.6913    0.0000 C   0  0  0  0  0  0  0  0  0  0  0  0
    3.0000  -10.3923    0.0000 C   0  0  0  0  0  0  0  0  0  0  0  0
    3.7500  -11.6913    0.0000 C   0  0  0  0  0  0  0  0  0  0  0  0
    5.2500  -11.6913    0.0000 C   0  0  0  0  0  0  0  0  0  0  0  0
    6.0000  -12.9904    0.0000 C   0  0  0  0  0  0  0  0  0  0  0  0
    6.0000  -10.3923    0.0000 C   0  0  0  0  0  0  0  0  0  0  0  0
    3.7500   -9.0933    0.0000 C   0  0  0  0  0  0  0  0  0  0  0  0
    3.0000   -7.7942    0.0000 O   0  0  0  0  0  0  0  0  0  0  0  0
    5.2500   -9.0933    0.0000 N   0  0  0  0  0  0  0  0  0  0  0  0
    6.0000   -7.7942    0.0000 C   0  0  0  0  0  0  0  0  0  0  0  0
    7.5000   -7.7942    0.0000 C   0  0  0  0  0  0  0  0  0  0  0  0
    8.2500   -9.0933    0.0000 C   0  0  0  0  0  0  0  0  0  0  0  0
    9.7500   -9.0933    0.0000 C   0  0  0  0  0  0  0  0  0  0  0  0
    7.5000  -10.3923    0.0000 C   0  0  0  0  0  0  0  0  0  0  0  0
    5.2500   -6.4952    0.0000 C   0  0  0  0  0  0  0  0  0  0  0  0
    3.7500   -6.4952    0.0000 O   0  0  0  0  0  0  0  0  0  0  0  0
    6.0000   -5.1962    0.0000 N   0  0  0  0  0  0  0  0  0  0  0  0
    5.3899   -3.8258    0.0000 C   0  0  0  0  0  0  0  0  0  0  0  0
    6.5046   -2.8221    0.0000 C   0  0  0  0  0  0  0  0  0  0  0  0
    7.8037   -3.5721    0.0000 C   0  0  0  0  0  0  0  0  0  0  0  0
    7.4918   -5.0394    0.0000 C   0  0  0  0  0  0  0  0  0  0  0  0
    8.4955   -6.1541    0.0000 C   0  0  0  0  0  0  0  0  0  0  0  0
    8.3909   -7.6504    0.0000 O   0  0  0  0  0  0  0  0  0  0  0  0
    9.9627   -5.8422    0.0000 N   0  0  0  0  0  0  0  0  0  0  0  0
   10.9664   -6.9569    0.0000 C   0  0  0  0  0  0  0  0  0  0  0  0
   12.4336   -6.6451    0.0000 C   0  0  0  0  0  0  0  0  0  0  0  0
   13.4373   -7.7598    0.0000 C   0  0  0  0  0  0  0  0  0  0  0  0
   14.4410   -8.8745    0.0000 C   0  0  0  0  0  0  0  0  0  0  0  0
   10.5029   -8.3835    0.0000 C   0  0  0  0  0  0  0  0  0  0  0  0
    9.0356   -8.6954    0.0000 O   0  0  0  0  0  0  0  0  0  0  0  0
   11.5066   -9.4982    0.0000 O   0  0  0  0  0  0  0  0  0  0  0  0
  1  2  1  0
  2  3  1  0
  3  4  1  0
  4  5  1  0
  5  6  2  0
  6  7  1  0
  7  8  2  0
  8  9  1  0
  9 10  2  0
  1 11  1  0
 11 12  1  0
 12 13  2  0
 12 14  1  0
 14 15  1  0
 14 16  1  0
 16 17  1  6
 17 18  1  0
 18 19  1  0
 18 20  1  0
 16 21  1  0
 21 22  2  0
 21 23  1  0
 23 24  1  0
 24 25  1  1
 25 26  1  0
 26 27  1  0
 26 28  1  0
 24 29  1  0
 29 30  2  0
 29 31  1  0
 31 32  1  0
 32 33  1  0
 33 34  1  0
 34 35  1  0
 35 36  1  1
 36 37  2  0
 36 38  1  0
 38 39  1  0
 39 40  1  1
 40 41  1  0
 41 42  3  0
 39 43  1  0
 43 44  2  0
 43 45  1  0
 10  5  1  0
 35 31  1  0
M  END
$$$$

     RDKit          2D

 48 49  0  0  0  0  0  0  0  0999 V2000
    1.5000  -12.9904    0.0000 N   0  0  0  0  0  0  0  0  0  0  0  0
    0.7500  -14.2894    0.0000 C   0  0  0  0  0  0  0  0  0  0  0  0
    1.5000  -15.5885    0.0000 C   0  0  0  0  0  0  0  0  0  0  0  0
    0.7500  -16.8875    0.0000 C   0  0  0  0  0  0  0  0  0  0  0  0
    1.5000  -18.1865    0.0000 C   0  0  0  0  0  0  0  0  0  0  0  0
    0.7500  -19.4856    0.0000 C   0  0  0  0  0  0  0  0  0  0  0  0
   -0.7500  -19.4856    0.0000 C   0  0  0  0  0  0  0  0  0  0  0  0
   -1.5000  -18.1865    0.0000 C   0  0  0  0  0  0  0  0  0  0  0  0
   -3.0000  -18.1865    0.0000 O   0  0  0  0  0  0  0  0  0  0  0  0
   -3.7500  -16.8875    0.0000 C   0  0  0  0  0  0  0  0  0  0  0  0
   -0.7500  -16.8875    0.0000 C   0  0  0  0  0  0  0  0  0  0  0  0
   -1.5000  -20.7846    0.0000 O   0  0  0  0  0  0  0  0  0  0  0  0
   -0.7500  -22.0836    0.0000 C   0  0  0  0  0  0  0  0  0  0  0  0
    0.7500  -11.6913    0.0000 C   0  0  0  0  0  0  0  0  0  0  0  0
    1.5000  -10.3923    0.0000 C   0  0  0  0  0  0  0  0  0  0  0  0
    3.0000  -10.3923    0.0000 O   0  0  0  0  0  0  0  0  0  0  0  0
    0.7500   -9.0933    0.0000 N   0  0  0  0  0  0  0  0  0  0  0  0
    1.5000   -7.7942    0.0000 C   0  0  0  0  0  0  0  0  0  0  0  0
   -0.7500   -9.0933    0.0000 C   0  0  0  0  0  0  0  0  0  0  0  0
   -1.5000  -10.3923    0.0000 C   0  0  0  0  0  0  0  0  0  0  0  0
   -3.0000  -10.3923    0.0000 C   0  0  0  0  0  0  0  0  0  0  0  0
   -3.7500  -11.6913    0.0000 C   0  0  0  0  0  0  0  0  0  0  0  0
   -3.7500   -9.0933    0.0000 C   0  0  0  0  0  0  0  0  0  0  0  0
   -1.5000   -7.7942    0.0000 C   0  0  0  0  0  0  0  0  0  0  0  0
   -0.7500   -6.4952    0.0000 O   0  0  0  0  0  0  0  0  0  0  0  0
   -3.0000   -7.7942    0.0000 N   0  0  0  0  0  0  0  0  0  0  0  0
   -3.7500   -6.4952    0.0000 C   0  0  0  0  0  0  0  0  0  0  0  0
   -5.2500   -6.4952    0.0000 C   0  0  0  0  0  0  0  0  0  0  0  0
   -6.0000   -7.7942    0.0000 C   0  0  0  0  0  0  0  0  0  0  0  0
   -7.5000   -7.7942    0.0000 C   0  0  0  0  0  0  0  0  0  0  0  0
   -5.2500   -9.0933    0.0000 C   0  0  0  0  0  0  0  0  0  0  0  0
   -3.0000   -5.1962    0.0000 C   0  0  0  0  0  0  0  0  0  0  0  0
   -1.5000   -5.1962    0.0000 O   0  0  0  0  0  0  0  0  0  0  0  0
   -3.7500   -3.8971    0.0000 N   0  0  0  0  0  0  0  0  0  0  0  0
   -3.1399   -2.5268    0.0000 C   0  0  0  0  0  0  0  0  0  0  0  0
   -4.2546   -1.5231    0.0000 C   0  0  0  0  0  0  0  0  0  0  0  0
   -5.5537   -2.2731    0.0000 C   0  0  0  0  0  0  0  0  0  0  0  0
   -5.2418   -3.7403    0.0000 C   0  0  0  0  0  0  0  0  0  0  0  0
   -6.2455   -4.8550    0.0000 C   0  0  0  0  0  0  0  0  0  0  0  0
   -6.1409   -6.3514    0.0000 O   0  0  0  0  0  0  0  0  0  0  0  0
   -7.7127   -4.5432    0.0000 N   0  0  0  0  0  0  0  0  0  0  0  0
   -8.7164   -5.6579    0.0000 C   0  0  0  0  0  0  0  0  0  0  0  0
  -10.1836   -5.3460    0.0000 C   0  0  0  0  0  0  0  0  0  0  0  0
  -11.1873   -6.4607    0.0000 C   0  0  0  0  0  0  0  0  0  0  0  0
  -12.1910   -7.5755    0.0000 C   0  0  0  0  0  0  0  0  0  0  0  0
   -8.2529   -7.0845    0.0000 C   0  0  0  0  0  0  0  0  0  0  0  0
   -6.7856   -7.3963    0.0000 O   0  0  0  0  0  0  0  0  0  0  0  0
   -9.2566   -8.1992    0.0000 O   0  0  0  0  0  0  0  0  0  0  0  0
  1  2  1  0
  2  3  1  0
  3  4  1  0
  4  5  2  0
  5  6  1  0
  6  7  2  0
  7  8  1  0
  8  9  1  0
  9 10  1  0
  8 11  2  0
  7 12  1  0
 12 13  1  0
  1 14  1  0
 14 15  1  0
 15 16  2  0
 15 17  1  0
 17 18  1  0
 17 19  1  0
 19 20  1  1
 20 21  1  0
 21 22  1  0
 21 23  1  0
 19 24  1  0
 24 25  2  0
 24 26  1  0
 26 27  1  0
 27 28  1  6
 28 29  1  0
 29 30  1  0
 29 31  1  0
 27 32  1  0
 32 33  2  0
 32 34  1  0
 34 35  1  0
 35 36  1  0
 36 37  1  0
 37 38  1  0
 38 39  1  6
 39 40  2  0
 39 41  1  0
 41 42  1  0
 42 43  1  6
 43 44  1  0
 44 45  3  0
 42 46  1  0
 46 47  2  0
 46 48  1  0
 11  4  1  0
 38 34  1  0
M  END
$$$$

     RDKit          2D

 55 56  0  0  0  0  0  0  0  0999 V2000
   -2.4876  -12.5103    0.0000 N   0  0  0  0  0  0  0  0  0  0  0  0
   -1.1173  -13.1204    0.0000 C   0  0  0  0  0  0  0  0  0  0  0  0
   -0.9605  -14.6122    0.0000 C   0  0  0  0  0  0  0  0  0  0  0  0
   -2.1741  -15.4938    0.0000 C   0  0  0  0  0  0  0  0  0  0  0  0
   -2.0173  -16.9856    0.0000 C   0  0  0  0  0  0  0  0  0  0  0  0
   -3.5444  -14.8837    0.0000 C   0  0  0  0  0  0  0  0  0  0  0  0
    0.0962  -12.2387    0.0000 C   0  0  0  0  0  0  0  0  0  0  0  0
    1.4665  -12.8488    0.0000 O   0  0  0  0  0  0  0  0  0  0  0  0
   -0.0606  -10.7469    0.0000 N   0  0  0  0  0  0  0  0  0  0  0  0
    1.1529   -9.8652    0.0000 C   0  0  0  0  0  0  0  0  0  0  0  0
    2.5233  -10.4753    0.0000 C   0  0  0  0  0  0  0  0  0  0  0  0
    3.7368   -9.5937    0.0000 C   0  0  0  0  0  0  0  0  0  0  0  0
    3.5800   -8.1019    0.0000 C   0  0  0  0  0  0  0  0  0  0  0  0
    5.1071  -10.2038    0.0000 C   0  0  0  0  0  0  0  0  0  0  0  0
    0.9961   -8.3735    0.0000 C   0  0  0  0  0  0  0  0  0  0  0  0
    2.2097   -7.4918    0.0000 O   0  0  0  0  0  0  0  0  0  0  0  0
   -0.3742   -7.7634    0.0000 N   0  0  0  0  0  0  0  0  0  0  0  0
   -1.6732   -8.5134    0.0000 C   0  0  0  0  0  0  0  0  0  0  0  0
   -2.7879   -7.5097    0.0000 C   0  0  0  0  0  0  0  0  0  0  0  0
   -2.1778   -6.1393    0.0000 C   0  0  0  0  0  0  0  0  0  0  0  0
   -0.6860   -6.2961    0.0000 C   0  0  0  0  0  0  0  0  0  0  0  0
    0.3177   -5.1814    0.0000 C   0  0  0  0  0  0  0  0  0  0  0  0
    1.7849   -5.4933    0.0000 O   0  0  0  0  0  0  0  0  0  0  0  0
   -0.1459   -3.7548    0.0000 N   0  0  0  0  0  0  0  0  0  0  0  0
    0.8578   -2.6401    0.0000 C   0  0  0  0  0  0  0  0  0  0  0  0
   -1.6131   -3.4430    0.0000 C   0  0  0  0  0  0  0  0  0  0  0  0
   -2.6168   -4.5577    0.0000 C   0  0  0  0  0  0  0  0  0  0  0  0
   -4.0840   -4.2458    0.0000 C   0  0  0  0  0  0  0  0  0  0  0  0
   -5.0877   -5.3605    0.0000 C   0  0  0  0  0  0  0  0  0  0  0  0
   -4.5475   -2.8192    0.0000 C   0  0  0  0  0  0  0  0  0  0  0  0
   -2.0766   -2.0164    0.0000 C   0  0  0  0  0  0  0  0  0  0  0  0
   -3.5438   -1.7045    0.0000 O   0  0  0  0  0  0  0  0  0  0  0  0
   -1.0729   -0.9017    0.0000 N   0  0  0  0  0  0  0  0  0  0  0  0
   -1.5364    0.5249    0.0000 C   0  0  0  0  0  0  0  0  0  0  0  0
   -0.5328    1.6396    0.0000 C   0  0  0  0  0  0  0  0  0  0  0  0
    0.9345    1.3278    0.0000 C   0  0  0  0  0  0  0  0  0  0  0  0
    1.9382    2.4425    0.0000 C   0  0  0  0  0  0  0  0  0  0  0  0
    1.3980   -0.0988    0.0000 C   0  0  0  0  0  0  0  0  0  0  0  0
   -3.0037    0.8368    0.0000 C   0  0  0  0  0  0  0  0  0  0  0  0
   -4.0074   -0.2779    0.0000 O   0  0  0  0  0  0  0  0  0  0  0  0
   -3.4672    2.2634    0.0000 N   0  0  0  0  0  0  0  0  0  0  0  0
   -2.5855    3.4769    0.0000 C   0  0  0  0  0  0  0  0  0  0  0  0
   -3.4672    4.6904    0.0000 C   0  0  0  0  0  0  0  0  0  0  0  0
   -4.8938    4.2269    0.0000 C   0  0  0  0  0  0  0  0  0  0  0  0
   -4.8938    2.7269    0.0000 C   0  0  0  0  0  0  0  0  0  0  0  0
   -6.1073    1.8452    0.0000 C   0  0  0  0  0  0  0  0  0  0  0  0
   -5.9505    0.3534    0.0000 O   0  0  0  0  0  0  0  0  0  0  0  0
   -7.4776    2.4553    0.0000 N   0  0  0  0  0  0  0  0  0  0  0  0
   -8.6911    1.5737    0.0000 C   0  0  0  0  0  0  0  0  0  0  0  0
  -10.0615    2.1838    0.0000 C   0  0  0  0  0  0  0  0  0  0  0  0
  -11.2750    1.3021    0.0000 C   0  0  0  0  0  0  0  0  0  0  0  0
  -12.4885    0.4204    0.0000 C   0  0  0  0  0  0  0  0  0  0  0  0
   -8.5344    0.0819    0.0000 C   0  0  0  0  0  0  0  0  0  0  0  0
   -9.7479   -0.7998    0.0000 O   0  0  0  0  0  0  0  0  0  0  0  0
   -7.1640   -0.5282    0.0000 O   0  0  0  0  0  0  0  0  0  0  0  0
  2  1  1  6
  2  3  1  0
  3  4  1  0
  4  5  1  0
  4  6  1  0
  2  7  1  0
  7  8  2  0
  7  9  1  0
  9 10  1  0
 10 11  1  6
 11 12  1  0
 12 13  1  0
 12 14  1  0
 10 15  1  0
 15 16  2  0
 15 17  1  0
 17 18  1  0
 18 19  1  0
 19 20  1  0
 20 21  1  0
 21 22  1  1
 22 23  2  0
 22 24  1  0
 24 25  1  0
 24 26  1  0
 26 27  1  1
 27 28  1  0
 28 29  1  0
 28 30  1  0
 26 31  1  0
 31 32  2  0
 31 33  1  0
 33 34  1  0
 34 35  1  1
 35 36  1  0
 36 37  1  0
 36 38  1  0
 34 39  1  0
 39 40  2  0
 39 41  1  0
 41 42  1  0
 42 43  1  0
 43 44  1  0
 44 45  1  0
 45 46  1  6
 46 47  2  0
 46 48  1  0
 48 49  1  0
 49 50  1  6
 50 51  1  0
 51 52  3  0
 49 53  1  0
 53 54  2  0
 53 55  1  0
 45 41  1  0
 21 17  1  0
M  END
$$$$

     RDKit          2D

 55 56  0  0  0  0  0  0  0  0999 V2000
   -2.4876  -12.5103    0.0000 N   0  0  0  0  0  0  0  0  0  0  0  0
   -1.1173  -13.1204    0.0000 C   0  0  0  0  0  0  0  0  0  0  0  0
   -0.9605  -14.6122    0.0000 C   0  0  0  0  0  0  0  0  0  0  0  0
   -2.1741  -15.4938    0.0000 C   0  0  0  0  0  0  0  0  0  0  0  0
   -2.0173  -16.9856    0.0000 C   0  0  0  0  0  0  0  0  0  0  0  0
   -3.5444  -14.8837    0.0000 C   0  0  0  0  0  0  0  0  0  0  0  0
    0.0962  -12.2387    0.0000 C   0  0  0  0  0  0  0  0  0  0  0  0
    1.4665  -12.8488    0.0000 O   0  0  0  0  0  0  0  0  0  0  0  0
   -0.0606  -10.7469    0.0000 N   0  0  0  0  0  0  0  0  0  0  0  0
    1.1529   -9.8652    0.0000 C   0  0  0  0  0  0  0  0  0  0  0  0
    2.5233  -10.4753    0.0000 C   0  0  0  0  0  0  0  0  0  0  0  0
    3.7368   -9.5937    0.0000 C   0  0  0  0  0  0  0  0  0  0  0  0
    3.5800   -8.1019    0.0000 C   0  0  0  0  0  0  0  0  0  0  0  0
    5.1071  -10.2038    0.0000 C   0  0  0  0  0  0  0  0  0  0  0  0
    0.9961   -8.3735    0.0000 C   0  0  0  0  0  0  0  0  0  0  0  0
    2.2097   -7.4918    0.0000 O   0  0  0  0  0  0  0  0  0  0  0  0
   -0.3742   -7.7634    0.0000 N   0  0  0  0  0  0  0  0  0  0  0  0
   -1.6732   -8.5134    0.0000 C   0  0  0  0  0  0  0  0  0  0  0  0
   -2.7879   -7.5097    0.0000 C   0  0  0  0  0  0  0  0  0  0  0  0
   -2.1778   -6.1393    0.0000 C   0  0  0  0  0  0  0  0  0  0  0  0
   -0.6860   -6.2961    0.0000 C   0  0  0  0  0  0  0  0  0  0  0  0
    0.3177   -5.1814    0.0000 C   0  0  0  0  0  0  0  0  0  0  0  0
    1.7849   -5.4933    0.0000 O   0  0  0  0  0  0  0  0  0  0  0  0
   -0.1459   -3.7548    0.0000 N   0  0  0  0  0  0  0  0  0  0  0  0
    0.8578   -2.6401    0.0000 C   0  0  0  0  0  0  0  0  0  0  0  0
   -1.6131   -3.4430    0.0000 C   0  0  0  0  0  0  0  0  0  0  0  0
   -2.6168   -4.5577    0.0000 C   0  0  0  0  0  0  0  0  0  0  0  0
   -4.0840   -4.2458    0.0000 C   0  0  0  0  0  0  0  0  0  0  0  0
   -5.0877   -5.3605    0.0000 C   0  0  0  0  0  0  0  0  0  0  0  0
   -4.5475   -2.8192    0.0000 C   0  0  0  0  0  0  0  0  0  0  0  0
   -2.0766   -2.0164    0.0000 C   0  0  0  0  0  0  0  0  0  0  0  0
   -3.5438   -1.7045    0.0000 O   0  0  0  0  0  0  0  0  0  0  0  0
   -1.0729   -0.9017    0.0000 N   0  0  0  0  0  0  0  0  0  0  0  0
   -1.5364    0.5249    0.0000 C   0  0  0  0  0  0  0  0  0  0  0  0
   -0.5328    1.6396    0.0000 C   0  0  0  0  0  0  0  0  0  0  0  0
    0.9345    1.3278    0.0000 C   0  0  0  0  0  0  0  0  0  0  0  0
    1.9382    2.4425    0.0000 C   0  0  0  0  0  0  0  0  0  0  0  0
    1.3980   -0.0988    0.0000 C   0  0  0  0  0  0  0  0  0  0  0  0
   -3.0037    0.8368    0.0000 C   0  0  0  0  0  0  0  0  0  0  0  0
   -4.0074   -0.2779    0.0000 O   0  0  0  0  0  0  0  0  0  0  0  0
   -3.4672    2.2634    0.0000 N   0  0  0  0  0  0  0  0  0  0  0  0
   -2.5855    3.4769    0.0000 C   0  0  0  0  0  0  0  0  0  0  0  0
   -3.4672    4.6904    0.0000 C   0  0  0  0  0  0  0  0  0  0  0  0
   -4.8938    4.2269    0.0000 C   0  0  0  0  0  0  0  0  0  0  0  0
   -4.8938    2.7269    0.0000 C   0  0  0  0  0  0  0  0  0  0  0  0
   -6.1073    1.8452    0.0000 C   0  0  0  0  0  0  0  0  0  0  0  0
   -5.9505    0.3534    0.0000 O   0  0  0  0  0  0  0  0  0  0  0  0
   -7.4776    2.4553    0.0000 N   0  0  0  0  0  0  0  0  0  0  0  0
   -8.6911    1.5737    0.0000 C   0  0  0  0  0  0  0  0  0  0  0  0
  -10.0615    2.1838    0.0000 C   0  0  0  0  0  0  0  0  0  0  0  0
  -11.2750    1.3021    0.0000 C   0  0  0  0  0  0  0  0  0  0  0  0
  -12.4885    0.4204    0.0000 C   0  0  0  0  0  0  0  0  0  0  0  0
   -8.5344    0.0819    0.0000 C   0  0  0  0  0  0  0  0  0  0  0  0
   -9.7479   -0.7998    0.0000 O   0  0  0  0  0  0  0  0  0  0  0  0
   -7.1640   -0.5282    0.0000 O   0  0  0  0  0  0  0  0  0  0  0  0
  2  1  1  1
  2  3  1  0
  3  4  1  0
  4  5  1  0
  4  6  1  0
  2  7  1  0
  7  8  2  0
  7  9  1  0
  9 10  1  0
 10 11  1  6
 11 12  1  0
 12 13  1  0
 12 14  1  0
 10 15  1  0
 15 16  2  0
 15 17  1  0
 17 18  1  0
 18 19  1  0
 19 20  1  0
 20 21  1  0
 21 22  1  1
 22 23  2  0
 22 24  1  0
 24 25  1  0
 24 26  1  0
 26 27  1  1
 27 28  1  0
 28 29  1  0
 28 30  1  0
 26 31  1  0
 31 32  2  0
 31 33  1  0
 33 34  1  0
 34 35  1  1
 35 36  1  0
 36 37  1  0
 36 38  1  0
 34 39  1  0
 39 40  2  0
 39 41  1  0
 41 42  1  0
 42 43  1  0
 43 44  1  0
 44 45  1  0
 45 46  1  6
 46 47  2  0
 46 48  1  0
 48 49  1  0
 49 50  1  6
 50 51  1  0
 51 52  3  0
 49 53  1  0
 53 54  2  0
 53 55  1  0
 45 41  1  0
 21 17  1  0
M  END
$$$$

     RDKit          2D

 56 57  0  0  0  0  0  0  0  0999 V2000
   -2.4876  -12.5103    0.0000 N   0  0  0  0  0  0  0  0  0  0  0  0
   -3.7012  -13.3920    0.0000 C   0  0  0  0  0  0  0  0  0  0  0  0
   -1.1173  -13.1204    0.0000 C   0  0  0  0  0  0  0  0  0  0  0  0
   -0.9605  -14.6122    0.0000 C   0  0  0  0  0  0  0  0  0  0  0  0
   -2.1741  -15.4938    0.0000 C   0  0  0  0  0  0  0  0  0  0  0  0
   -2.0173  -16.9856    0.0000 C   0  0  0  0  0  0  0  0  0  0  0  0
   -3.5444  -14.8837    0.0000 C   0  0  0  0  0  0  0  0  0  0  0  0
    0.0962  -12.2387    0.0000 C   0  0  0  0  0  0  0  0  0  0  0  0
    1.4665  -12.8488    0.0000 O   0  0  0  0  0  0  0  0  0  0  0  0
   -0.0606  -10.7469    0.0000 N   0  0  0  0  0  0  0  0  0  0  0  0
    1.1529   -9.8652    0.0000 C   0  0  0  0  0  0  0  0  0  0  0  0
    2.5233  -10.4753    0.0000 C   0  0  0  0  0  0  0  0  0  0  0  0
    3.7368   -9.5937    0.0000 C   0  0  0  0  0  0  0  0  0  0  0  0
    5.1071  -10.2038    0.0000 C   0  0  0  0  0  0  0  0  0  0  0  0
    3.5800   -8.1019    0.0000 C   0  0  0  0  0  0  0  0  0  0  0  0
    0.9961   -8.3735    0.0000 C   0  0  0  0  0  0  0  0  0  0  0  0
    2.2097   -7.4918    0.0000 O   0  0  0  0  0  0  0  0  0  0  0  0
   -0.3742   -7.7634    0.0000 N   0  0  0  0  0  0  0  0  0  0  0  0
   -1.6732   -8.5134    0.0000 C   0  0  0  0  0  0  0  0  0  0  0  0
   -2.7879   -7.5097    0.0000 C   0  0  0  0  0  0  0  0  0  0  0  0
   -2.1778   -6.1393    0.0000 C   0  0  0  0  0  0  0  0  0  0  0  0
   -0.6860   -6.2961    0.0000 C   0  0  0  0  0  0  0  0  0  0  0  0
    0.3177   -5.1814    0.0000 C   0  0  0  0  0  0  0  0  0  0  0  0
    1.7849   -5.4933    0.0000 O   0  0  0  0  0  0  0  0  0  0  0  0
   -0.1459   -3.7548    0.0000 N   0  0  0  0  0  0  0  0  0  0  0  0
    0.8578   -2.6401    0.0000 C   0  0  0  0  0  0  0  0  0  0  0  0
   -1.6131   -3.4430    0.0000 C   0  0  0  0  0  0  0  0  0  0  0  0
   -2.6168   -4.5577    0.0000 C   0  0  0  0  0  0  0  0  0  0  0  0
   -4.0840   -4.2458    0.0000 C   0  0  0  0  0  0  0  0  0  0  0  0
   -5.0877   -5.3605    0.0000 C   0  0  0  0  0  0  0  0  0  0  0  0
   -4.5475   -2.8192    0.0000 C   0  0  0  0  0  0  0  0  0  0  0  0
   -2.0766   -2.0164    0.0000 C   0  0  0  0  0  0  0  0  0  0  0  0
   -3.5438   -1.7045    0.0000 O   0  0  0  0  0  0  0  0  0  0  0  0
   -1.0729   -0.9017    0.0000 N   0  0  0  0  0  0  0  0  0  0  0  0
   -1.5364    0.5249    0.0000 C   0  0  0  0  0  0  0  0  0  0  0  0
   -0.5328    1.6396    0.0000 C   0  0  0  0  0  0  0  0  0  0  0  0
    0.9345    1.3278    0.0000 C   0  0  0  0  0  0  0  0  0  0  0  0
    1.9382    2.4425    0.0000 C   0  0  0  0  0  0  0  0  0  0  0  0
    1.3980   -0.0988    0.0000 C   0  0  0  0  0  0  0  0  0  0  0  0
   -3.0037    0.8368    0.0000 C   0  0  0  0  0  0  0  0  0  0  0  0
   -4.0074   -0.2779    0.0000 O   0  0  0  0  0  0  0  0  0  0  0  0
   -3.4672    2.2634    0.0000 N   0  0  0  0  0  0  0  0  0  0  0  0
   -2.5855    3.4769    0.0000 C   0  0  0  0  0  0  0  0  0  0  0  0
   -3.4672    4.6904    0.0000 C   0  0  0  0  0  0  0  0  0  0  0  0
   -4.8938    4.2269    0.0000 C   0  0  0  0  0  0  0  0  0  0  0  0
   -4.8938    2.7269    0.0000 C   0  0  0  0  0  0  0  0  0  0  0  0
   -6.1073    1.8452    0.0000 C   0  0  0  0  0  0  0  0  0  0  0  0
   -5.9505    0.3534    0.0000 O   0  0  0  0  0  0  0  0  0  0  0  0
   -7.4776    2.4553    0.0000 N   0  0  0  0  0  0  0  0  0  0  0  0
   -8.6911    1.5737    0.0000 C   0  0  0  0  0  0  0  0  0  0  0  0
  -10.0615    2.1838    0.0000 C   0  0  0  0  0  0  0  0  0  0  0  0
  -11.2750    1.3021    0.0000 C   0  0  0  0  0  0  0  0  0  0  0  0
  -12.4885    0.4204    0.0000 C   0  0  0  0  0  0  0  0  0  0  0  0
   -8.5344    0.0819    0.0000 C   0  0  0  0  0  0  0  0  0  0  0  0
   -9.7479   -0.7998    0.0000 O   0  0  0  0  0  0  0  0  0  0  0  0
   -7.1640   -0.5282    0.0000 O   0  0  0  0  0  0  0  0  0  0  0  0
  1  2  1  0
  1  3  1  0
  3  4  1  6
  4  5  1  0
  5  6  1  0
  5  7  1  0
  3  8  1  0
  8  9  2  0
  8 10  1  0
 10 11  1  0
 11 12  1  6
 12 13  1  0
 13 14  1  0
 13 15  1  0
 11 16  1  0
 16 17  2  0
 16 18  1  0
 18 19  1  0
 19 20  1  0
 20 21  1  0
 21 22  1  0
 22 23  1  1
 23 24  2  0
 23 25  1  0
 25 26  1  0
 25 27  1  0
 27 28  1  1
 28 29  1  0
 29 30  1  0
 29 31  1  0
 27 32  1  0
 32 33  2  0
 32 34  1  0
 34 35  1  0
 35 36  1  1
 36 37  1  0
 37 38  1  0
 37 39  1  0
 35 40  1  0
 40 41  2  0
 40 42  1  0
 42 43  1  0
 43 44  1  0
 44 45  1  0
 45 46  1  0
 46 47  1  6
 47 48  2  0
 47 49  1  0
 49 50  1  0
 50 51  1  6
 51 52  1  0
 52 53  3  0
 50 54  1  0
 54 55  2  0
 54 56  1  0
 46 42  1  0
 22 18  1  0
M  END
$$$$

     RDKit          2D

 56 57  0  0  0  0  0  0  0  0999 V2000
   -2.4876  -12.5103    0.0000 N   0  0  0  0  0  0  0  0  0  0  0  0
   -3.7012  -13.3920    0.0000 C   0  0  0  0  0  0  0  0  0  0  0  0
   -1.1173  -13.1204    0.0000 C   0  0  0  0  0  0  0  0  0  0  0  0
   -0.9605  -14.6122    0.0000 C   0  0  0  0  0  0  0  0  0  0  0  0
   -2.1741  -15.4938    0.0000 C   0  0  0  0  0  0  0  0  0  0  0  0
   -2.0173  -16.9856    0.0000 C   0  0  0  0  0  0  0  0  0  0  0  0
   -3.5444  -14.8837    0.0000 C   0  0  0  0  0  0  0  0  0  0  0  0
    0.0962  -12.2387    0.0000 C   0  0  0  0  0  0  0  0  0  0  0  0
    1.4665  -12.8488    0.0000 O   0  0  0  0  0  0  0  0  0  0  0  0
   -0.0606  -10.7469    0.0000 N   0  0  0  0  0  0  0  0  0  0  0  0
    1.1529   -9.8652    0.0000 C   0  0  0  0  0  0  0  0  0  0  0  0
    2.5233  -10.4753    0.0000 C   0  0  0  0  0  0  0  0  0  0  0  0
    3.7368   -9.5937    0.0000 C   0  0  0  0  0  0  0  0  0  0  0  0
    5.1071  -10.2038    0.0000 C   0  0  0  0  0  0  0  0  0  0  0  0
    3.5800   -8.1019    0.0000 C   0  0  0  0  0  0  0  0  0  0  0  0
    0.9961   -8.3735    0.0000 C   0  0  0  0  0  0  0  0  0  0  0  0
    2.2097   -7.4918    0.0000 O   0  0  0  0  0  0  0  0  0  0  0  0
   -0.3742   -7.7634    0.0000 N   0  0  0  0  0  0  0  0  0  0  0  0
   -1.6732   -8.5134    0.0000 C   0  0  0  0  0  0  0  0  0  0  0  0
   -2.7879   -7.5097    0.0000 C   0  0  0  0  0  0  0  0  0  0  0  0
   -2.1778   -6.1393    0.0000 C   0  0  0  0  0  0  0  0  0  0  0  0
   -0.6860   -6.2961    0.0000 C   0  0  0  0  0  0  0  0  0  0  0  0
    0.3177   -5.1814    0.0000 C   0  0  0  0  0  0  0  0  0  0  0  0
    1.7849   -5.4933    0.0000 O   0  0  0  0  0  0  0  0  0  0  0  0
   -0.1459   -3.7548    0.0000 N   0  0  0  0  0  0  0  0  0  0  0  0
    0.8578   -2.6401    0.0000 C   0  0  0  0  0  0  0  0  0  0  0  0
   -1.6131   -3.4430    0.0000 C   0  0  0  0  0  0  0  0  0  0  0  0
   -2.6168   -4.5577    0.0000 C   0  0  0  0  0  0  0  0  0  0  0  0
   -4.0840   -4.2458    0.0000 C   0  0  0  0  0  0  0  0  0  0  0  0
   -5.0877   -5.3605    0.0000 C   0  0  0  0  0  0  0  0  0  0  0  0
   -4.5475   -2.8192    0.0000 C   0  0  0  0  0  0  0  0  0  0  0  0
   -2.0766   -2.0164    0.0000 C   0  0  0  0  0  0  0  0  0  0  0  0
   -3.5438   -1.7045    0.0000 O   0  0  0  0  0  0  0  0  0  0  0  0
   -1.0729   -0.9017    0.0000 N   0  0  0  0  0  0  0  0  0  0  0  0
   -1.5364    0.5249    0.0000 C   0  0  0  0  0  0  0  0  0  0  0  0
   -0.5328    1.6396    0.0000 C   0  0  0  0  0  0  0  0  0  0  0  0
    0.9345    1.3278    0.0000 C   0  0  0  0  0  0  0  0  0  0  0  0
    1.9382    2.4425    0.0000 C   0  0  0  0  0  0  0  0  0  0  0  0
    1.3980   -0.0988    0.0000 C   0  0  0  0  0  0  0  0  0  0  0  0
   -3.0037    0.8368    0.0000 C   0  0  0  0  0  0  0  0  0  0  0  0
   -4.0074   -0.2779    0.0000 O   0  0  0  0  0  0  0  0  0  0  0  0
   -3.4672    2.2634    0.0000 N   0  0  0  0  0  0  0  0  0  0  0  0
   -2.5855    3.4769    0.0000 C   0  0  0  0  0  0  0  0  0  0  0  0
   -3.4672    4.6904    0.0000 C   0  0  0  0  0  0  0  0  0  0  0  0
   -4.8938    4.2269    0.0000 C   0  0  0  0  0  0  0  0  0  0  0  0
   -4.8938    2.7269    0.0000 C   0  0  0  0  0  0  0  0  0  0  0  0
   -6.1073    1.8452    0.0000 C   0  0  0  0  0  0  0  0  0  0  0  0
   -5.9505    0.3534    0.0000 O   0  0  0  0  0  0  0  0  0  0  0  0
   -7.4776    2.4553    0.0000 N   0  0  0  0  0  0  0  0  0  0  0  0
   -8.6911    1.5737    0.0000 C   0  0  0  0  0  0  0  0  0  0  0  0
  -10.0615    2.1838    0.0000 C   0  0  0  0  0  0  0  0  0  0  0  0
  -11.2750    1.3021    0.0000 C   0  0  0  0  0  0  0  0  0  0  0  0
  -12.4885    0.4204    0.0000 C   0  0  0  0  0  0  0  0  0  0  0  0
   -8.5344    0.0819    0.0000 C   0  0  0  0  0  0  0  0  0  0  0  0
   -9.7479   -0.7998    0.0000 O   0  0  0  0  0  0  0  0  0  0  0  0
   -7.1640   -0.5282    0.0000 O   0  0  0  0  0  0  0  0  0  0  0  0
  1  2  1  0
  1  3  1  0
  3  4  1  1
  4  5  1  0
  5  6  1  0
  5  7  1  0
  3  8  1  0
  8  9  2  0
  8 10  1  0
 10 11  1  0
 11 12  1  6
 12 13  1  0
 13 14  1  0
 13 15  1  0
 11 16  1  0
 16 17  2  0
 16 18  1  0
 18 19  1  0
 19 20  1  0
 20 21  1  0
 21 22  1  0
 22 23  1  1
 23 24  2  0
 23 25  1  0
 25 26  1  0
 25 27  1  0
 27 28  1  1
 28 29  1  0
 29 30  1  0
 29 31  1  0
 27 32  1  0
 32 33  2  0
 32 34  1  0
 34 35  1  0
 35 36  1  1
 36 37  1  0
 37 38  1  0
 37 39  1  0
 35 40  1  0
 40 41  2  0
 40 42  1  0
 42 43  1  0
 43 44  1  0
 44 45  1  0
 45 46  1  0
 46 47  1  6
 47 48  2  0
 47 49  1  0
 49 50  1  0
 50 51  1  6
 51 52  1  0
 52 53  3  0
 50 54  1  0
 54 55  2  0
 54 56  1  0
 46 42  1  0
 22 18  1  0
M  END
$$$$

     RDKit          2D

 55 56  0  0  0  0  0  0  0  0999 V2000
   -2.4876  -12.5103    0.0000 N   0  0  0  0  0  0  0  0  0  0  0  0
   -1.1173  -13.1204    0.0000 C   0  0  0  0  0  0  0  0  0  0  0  0
   -0.9605  -14.6122    0.0000 C   0  0  0  0  0  0  0  0  0  0  0  0
   -2.1741  -15.4938    0.0000 C   0  0  0  0  0  0  0  0  0  0  0  0
   -2.0173  -16.9856    0.0000 C   0  0  0  0  0  0  0  0  0  0  0  0
   -3.5444  -14.8837    0.0000 C   0  0  0  0  0  0  0  0  0  0  0  0
    0.0962  -12.2387    0.0000 C   0  0  0  0  0  0  0  0  0  0  0  0
    1.4665  -12.8488    0.0000 O   0  0  0  0  0  0  0  0  0  0  0  0
   -0.0606  -10.7469    0.0000 N   0  0  0  0  0  0  0  0  0  0  0  0
    1.1529   -9.8652    0.0000 C   0  0  0  0  0  0  0  0  0  0  0  0
    2.5233  -10.4753    0.0000 C   0  0  0  0  0  0  0  0  0  0  0  0
    3.7368   -9.5937    0.0000 C   0  0  0  0  0  0  0  0  0  0  0  0
    3.5800   -8.1019    0.0000 C   0  0  0  0  0  0  0  0  0  0  0  0
    5.1071  -10.2038    0.0000 C   0  0  0  0  0  0  0  0  0  0  0  0
    0.9961   -8.3735    0.0000 C   0  0  0  0  0  0  0  0  0  0  0  0
    2.2097   -7.4918    0.0000 O   0  0  0  0  0  0  0  0  0  0  0  0
   -0.3742   -7.7634    0.0000 N   0  0  0  0  0  0  0  0  0  0  0  0
   -1.6732   -8.5134    0.0000 C   0  0  0  0  0  0  0  0  0  0  0  0
   -2.7879   -7.5097    0.0000 C   0  0  0  0  0  0  0  0  0  0  0  0
   -2.1778   -6.1393    0.0000 C   0  0  0  0  0  0  0  0  0  0  0  0
   -0.6860   -6.2961    0.0000 C   0  0  0  0  0  0  0  0  0  0  0  0
    0.3177   -5.1814    0.0000 C   0  0  0  0  0  0  0  0  0  0  0  0
    1.7849   -5.4933    0.0000 O   0  0  0  0  0  0  0  0  0  0  0  0
   -0.1459   -3.7548    0.0000 N   0  0  0  0  0  0  0  0  0  0  0  0
    0.8578   -2.6401    0.0000 C   0  0  0  0  0  0  0  0  0  0  0  0
   -1.6131   -3.4430    0.0000 C   0  0  0  0  0  0  0  0  0  0  0  0
   -2.6168   -4.5577    0.0000 C   0  0  0  0  0  0  0  0  0  0  0  0
   -4.0840   -4.2458    0.0000 C   0  0  0  0  0  0  0  0  0  0  0  0
   -5.0877   -5.3605    0.0000 C   0  0  0  0  0  0  0  0  0  0  0  0
   -4.5475   -2.8192    0.0000 C   0  0  0  0  0  0  0  0  0  0  0  0
   -2.0766   -2.0164    0.0000 C   0  0  0  0  0  0  0  0  0  0  0  0
   -3.5438   -1.7045    0.0000 O   0  0  0  0  0  0  0  0  0  0  0  0
   -1.0729   -0.9017    0.0000 N   0  0  0  0  0  0  0  0  0  0  0  0
   -1.5364    0.5249    0.0000 C   0  0  0  0  0  0  0  0  0  0  0  0
   -0.5328    1.6396    0.0000 C   0  0  0  0  0  0  0  0  0  0  0  0
    0.9345    1.3278    0.0000 C   0  0  0  0  0  0  0  0  0  0  0  0
    1.9382    2.4425    0.0000 C   0  0  0  0  0  0  0  0  0  0  0  0
    1.3980   -0.0988    0.0000 C   0  0  0  0  0  0  0  0  0  0  0  0
   -3.0037    0.8368    0.0000 C   0  0  0  0  0  0  0  0  0  0  0  0
   -4.0074   -0.2779    0.0000 O   0  0  0  0  0  0  0  0  0  0  0  0
   -3.4672    2.2634    0.0000 N   0  0  0  0  0  0  0  0  0  0  0  0
   -2.5855    3.4769    0.0000 C   0  0  0  0  0  0  0  0  0  0  0  0
   -3.4672    4.6904    0.0000 C   0  0  0  0  0  0  0  0  0  0  0  0
   -4.8938    4.2269    0.0000 C   0  0  0  0  0  0  0  0  0  0  0  0
   -4.8938    2.7269    0.0000 C   0  0  0  0  0  0  0  0  0  0  0  0
   -6.1073    1.8452    0.0000 C   0  0  0  0  0  0  0  0  0  0  0  0
   -5.9505    0.3534    0.0000 O   0  0  0  0  0  0  0  0  0  0  0  0
   -7.4776    2.4553    0.0000 N   0  0  0  0  0  0  0  0  0  0  0  0
   -8.6911    1.5737    0.0000 C   0  0  0  0  0  0  0  0  0  0  0  0
  -10.0615    2.1838    0.0000 C   0  0  0  0  0  0  0  0  0  0  0  0
  -11.2750    1.3021    0.0000 C   0  0  0  0  0  0  0  0  0  0  0  0
  -12.4885    0.4204    0.0000 C   0  0  0  0  0  0  0  0  0  0  0  0
   -8.5344    0.0819    0.0000 C   0  0  0  0  0  0  0  0  0  0  0  0
   -9.7479   -0.7998    0.0000 O   0  0  0  0  0  0  0  0  0  0  0  0
   -7.1640   -0.5282    0.0000 O   0  0  0  0  0  0  0  0  0  0  0  0
  2  1  1  6
  2  3  1  0
  3  4  1  0
  4  5  1  0
  4  6  1  0
  2  7  1  0
  7  8  2  0
  7  9  1  0
  9 10  1  0
 10 11  1  1
 11 12  1  0
 12 13  1  0
 12 14  1  0
 10 15  1  0
 15 16  2  0
 15 17  1  0
 17 18  1  0
 18 19  1  0
 19 20  1  0
 20 21  1  0
 21 22  1  1
 22 23  2  0
 22 24  1  0
 24 25  1  0
 24 26  1  0
 26 27  1  1
 27 28  1  0
 28 29  1  0
 28 30  1  0
 26 31  1  0
 31 32  2  0
 31 33  1  0
 33 34  1  0
 34 35  1  1
 35 36  1  0
 36 37  1  0
 36 38  1  0
 34 39  1  0
 39 40  2  0
 39 41  1  0
 41 42  1  0
 42 43  1  0
 43 44  1  0
 44 45  1  0
 45 46  1  6
 46 47  2  0
 46 48  1  0
 48 49  1  0
 49 50  1  6
 50 51  1  0
 51 52  3  0
 49 53  1  0
 53 54  2  0
 53 55  1  0
 45 41  1  0
 21 17  1  0
M  END
$$$$

     RDKit          2D

 55 56  0  0  0  0  0  0  0  0999 V2000
   -2.4876  -12.5103    0.0000 N   0  0  0  0  0  0  0  0  0  0  0  0
   -1.1173  -13.1204    0.0000 C   0  0  0  0  0  0  0  0  0  0  0  0
   -0.9605  -14.6122    0.0000 C   0  0  0  0  0  0  0  0  0  0  0  0
   -2.1741  -15.4938    0.0000 C   0  0  0  0  0  0  0  0  0  0  0  0
   -2.0173  -16.9856    0.0000 C   0  0  0  0  0  0  0  0  0  0  0  0
   -3.5444  -14.8837    0.0000 C   0  0  0  0  0  0  0  0  0  0  0  0
    0.0962  -12.2387    0.0000 C   0  0  0  0  0  0  0  0  0  0  0  0
    1.4665  -12.8488    0.0000 O   0  0  0  0  0  0  0  0  0  0  0  0
   -0.0606  -10.7469    0.0000 N   0  0  0  0  0  0  0  0  0  0  0  0
    1.1529   -9.8652    0.0000 C   0  0  0  0  0  0  0  0  0  0  0  0
    2.5233  -10.4753    0.0000 C   0  0  0  0  0  0  0  0  0  0  0  0
    3.7368   -9.5937    0.0000 C   0  0  0  0  0  0  0  0  0  0  0  0
    3.5800   -8.1019    0.0000 C   0  0  0  0  0  0  0  0  0  0  0  0
    5.1071  -10.2038    0.0000 C   0  0  0  0  0  0  0  0  0  0  0  0
    0.9961   -8.3735    0.0000 C   0  0  0  0  0  0  0  0  0  0  0  0
    2.2097   -7.4918    0.0000 O   0  0  0  0  0  0  0  0  0  0  0  0
   -0.3742   -7.7634    0.0000 N   0  0  0  0  0  0  0  0  0  0  0  0
   -1.6732   -8.5134    0.0000 C   0  0  0  0  0  0  0  0  0  0  0  0
   -2.7879   -7.5097    0.0000 C   0  0  0  0  0  0  0  0  0  0  0  0
   -2.1778   -6.1393    0.0000 C   0  0  0  0  0  0  0  0  0  0  0  0
   -0.6860   -6.2961    0.0000 C   0  0  0  0  0  0  0  0  0  0  0  0
    0.3177   -5.1814    0.0000 C   0  0  0  0  0  0  0  0  0  0  0  0
    1.7849   -5.4933    0.0000 O   0  0  0  0  0  0  0  0  0  0  0  0
   -0.1459   -3.7548    0.0000 N   0  0  0  0  0  0  0  0  0  0  0  0
    0.8578   -2.6401    0.0000 C   0  0  0  0  0  0  0  0  0  0  0  0
   -1.6131   -3.4430    0.0000 C   0  0  0  0  0  0  0  0  0  0  0  0
   -2.6168   -4.5577    0.0000 C   0  0  0  0  0  0  0  0  0  0  0  0
   -4.0840   -4.2458    0.0000 C   0  0  0  0  0  0  0  0  0  0  0  0
   -5.0877   -5.3605    0.0000 C   0  0  0  0  0  0  0  0  0  0  0  0
   -4.5475   -2.8192    0.0000 C   0  0  0  0  0  0  0  0  0  0  0  0
   -2.0766   -2.0164    0.0000 C   0  0  0  0  0  0  0  0  0  0  0  0
   -3.5438   -1.7045    0.0000 O   0  0  0  0  0  0  0  0  0  0  0  0
   -1.0729   -0.9017    0.0000 N   0  0  0  0  0  0  0  0  0  0  0  0
   -1.5364    0.5249    0.0000 C   0  0  0  0  0  0  0  0  0  0  0  0
   -0.5328    1.6396    0.0000 C   0  0  0  0  0  0  0  0  0  0  0  0
    0.9345    1.3278    0.0000 C   0  0  0  0  0  0  0  0  0  0  0  0
    1.9382    2.4425    0.0000 C   0  0  0  0  0  0  0  0  0  0  0  0
    1.3980   -0.0988    0.0000 C   0  0  0  0  0  0  0  0  0  0  0  0
   -3.0037    0.8368    0.0000 C   0  0  0  0  0  0  0  0  0  0  0  0
   -4.0074   -0.2779    0.0000 O   0  0  0  0  0  0  0  0  0  0  0  0
   -3.4672    2.2634    0.0000 N   0  0  0  0  0  0  0  0  0  0  0  0
   -2.5855    3.4769    0.0000 C   0  0  0  0  0  0  0  0  0  0  0  0
   -3.4672    4.6904    0.0000 C   0  0  0  0  0  0  0  0  0  0  0  0
   -4.8938    4.2269    0.0000 C   0  0  0  0  0  0  0  0  0  0  0  0
   -4.8938    2.7269    0.0000 C   0  0  0  0  0  0  0  0  0  0  0  0
   -6.1073    1.8452    0.0000 C   0  0  0  0  0  0  0  0  0  0  0  0
   -5.9505    0.3534    0.0000 O   0  0  0  0  0  0  0  0  0  0  0  0
   -7.4776    2.4553    0.0000 N   0  0  0  0  0  0  0  0  0  0  0  0
   -8.6911    1.5737    0.0000 C   0  0  0  0  0  0  0  0  0  0  0  0
  -10.0615    2.1838    0.0000 C   0  0  0  0  0  0  0  0  0  0  0  0
  -11.2750    1.3021    0.0000 C   0  0  0  0  0  0  0  0  0  0  0  0
  -12.4885    0.4204    0.0000 C   0  0  0  0  0  0  0  0  0  0  0  0
   -8.5344    0.0819    0.0000 C   0  0  0  0  0  0  0  0  0  0  0  0
   -9.7479   -0.7998    0.0000 O   0  0  0  0  0  0  0  0  0  0  0  0
   -7.1640   -0.5282    0.0000 O   0  0  0  0  0  0  0  0  0  0  0  0
  2  1  1  1
  2  3  1  0
  3  4  1  0
  4  5  1  0
  4  6  1  0
  2  7  1  0
  7  8  2  0
  7  9  1  0
  9 10  1  0
 10 11  1  1
 11 12  1  0
 12 13  1  0
 12 14  1  0
 10 15  1  0
 15 16  2  0
 15 17  1  0
 17 18  1  0
 18 19  1  0
 19 20  1  0
 20 21  1  0
 21 22  1  1
 22 23  2  0
 22 24  1  0
 24 25  1  0
 24 26  1  0
 26 27  1  1
 27 28  1  0
 28 29  1  0
 28 30  1  0
 26 31  1  0
 31 32  2  0
 31 33  1  0
 33 34  1  0
 34 35  1  1
 35 36  1  0
 36 37  1  0
 36 38  1  0
 34 39  1  0
 39 40  2  0
 39 41  1  0
 41 42  1  0
 42 43  1  0
 43 44  1  0
 44 45  1  0
 45 46  1  6
 46 47  2  0
 46 48  1  0
 48 49  1  0
 49 50  1  6
 50 51  1  0
 51 52  3  0
 49 53  1  0
 53 54  2  0
 53 55  1  0
 45 41  1  0
 21 17  1  0
M  END
$$$$

     RDKit          2D

 56 57  0  0  0  0  0  0  0  0999 V2000
   -2.4876  -12.5103    0.0000 N   0  0  0  0  0  0  0  0  0  0  0  0
   -3.7012  -13.3920    0.0000 C   0  0  0  0  0  0  0  0  0  0  0  0
   -1.1173  -13.1204    0.0000 C   0  0  0  0  0  0  0  0  0  0  0  0
   -0.9605  -14.6122    0.0000 C   0  0  0  0  0  0  0  0  0  0  0  0
   -2.1741  -15.4938    0.0000 C   0  0  0  0  0  0  0  0  0  0  0  0
   -2.0173  -16.9856    0.0000 C   0  0  0  0  0  0  0  0  0  0  0  0
   -3.5444  -14.8837    0.0000 C   0  0  0  0  0  0  0  0  0  0  0  0
    0.0962  -12.2387    0.0000 C   0  0  0  0  0  0  0  0  0  0  0  0
    1.4665  -12.8488    0.0000 O   0  0  0  0  0  0  0  0  0  0  0  0
   -0.0606  -10.7469    0.0000 N   0  0  0  0  0  0  0  0  0  0  0  0
    1.1529   -9.8652    0.0000 C   0  0  0  0  0  0  0  0  0  0  0  0
    2.5233  -10.4753    0.0000 C   0  0  0  0  0  0  0  0  0  0  0  0
    3.7368   -9.5937    0.0000 C   0  0  0  0  0  0  0  0  0  0  0  0
    5.1071  -10.2038    0.0000 C   0  0  0  0  0  0  0  0  0  0  0  0
    3.5800   -8.1019    0.0000 C   0  0  0  0  0  0  0  0  0  0  0  0
    0.9961   -8.3735    0.0000 C   0  0  0  0  0  0  0  0  0  0  0  0
    2.2097   -7.4918    0.0000 O   0  0  0  0  0  0  0  0  0  0  0  0
   -0.3742   -7.7634    0.0000 N   0  0  0  0  0  0  0  0  0  0  0  0
   -1.6732   -8.5134    0.0000 C   0  0  0  0  0  0  0  0  0  0  0  0
   -2.7879   -7.5097    0.0000 C   0  0  0  0  0  0  0  0  0  0  0  0
   -2.1778   -6.1393    0.0000 C   0  0  0  0  0  0  0  0  0  0  0  0
   -0.6860   -6.2961    0.0000 C   0  0  0  0  0  0  0  0  0  0  0  0
    0.3177   -5.1814    0.0000 C   0  0  0  0  0  0  0  0  0  0  0  0
    1.7849   -5.4933    0.0000 O   0  0  0  0  0  0  0  0  0  0  0  0
   -0.1459   -3.7548    0.0000 N   0  0  0  0  0  0  0  0  0  0  0  0
    0.8578   -2.6401    0.0000 C   0  0  0  0  0  0  0  0  0  0  0  0
   -1.6131   -3.4430    0.0000 C   0  0  0  0  0  0  0  0  0  0  0  0
   -2.6168   -4.5577    0.0000 C   0  0  0  0  0  0  0  0  0  0  0  0
   -4.0840   -4.2458    0.0000 C   0  0  0  0  0  0  0  0  0  0  0  0
   -5.0877   -5.3605    0.0000 C   0  0  0  0  0  0  0  0  0  0  0  0
   -4.5475   -2.8192    0.0000 C   0  0  0  0  0  0  0  0  0  0  0  0
   -2.0766   -2.0164    0.0000 C   0  0  0  0  0  0  0  0  0  0  0  0
   -3.5438   -1.7045    0.0000 O   0  0  0  0  0  0  0  0  0  0  0  0
   -1.0729   -0.9017    0.0000 N   0  0  0  0  0  0  0  0  0  0  0  0
   -1.5364    0.5249    0.0000 C   0  0  0  0  0  0  0  0  0  0  0  0
   -0.5328    1.6396    0.0000 C   0  0  0  0  0  0  0  0  0  0  0  0
    0.9345    1.3278    0.0000 C   0  0  0  0  0  0  0  0  0  0  0  0
    1.9382    2.4425    0.0000 C   0  0  0  0  0  0  0  0  0  0  0  0
    1.3980   -0.0988    0.0000 C   0  0  0  0  0  0  0  0  0  0  0  0
   -3.0037    0.8368    0.0000 C   0  0  0  0  0  0  0  0  0  0  0  0
   -4.0074   -0.2779    0.0000 O   0  0  0  0  0  0  0  0  0  0  0  0
   -3.4672    2.2634    0.0000 N   0  0  0  0  0  0  0  0  0  0  0  0
   -2.5855    3.4769    0.0000 C   0  0  0  0  0  0  0  0  0  0  0  0
   -3.4672    4.6904    0.0000 C   0  0  0  0  0  0  0  0  0  0  0  0
   -4.8938    4.2269    0.0000 C   0  0  0  0  0  0  0  0  0  0  0  0
   -4.8938    2.7269    0.0000 C   0  0  0  0  0  0  0  0  0  0  0  0
   -6.1073    1.8452    0.0000 C   0  0  0  0  0  0  0  0  0  0  0  0
   -5.9505    0.3534    0.0000 O   0  0  0  0  0  0  0  0  0  0  0  0
   -7.4776    2.4553    0.0000 N   0  0  0  0  0  0  0  0  0  0  0  0
   -8.6911    1.5737    0.0000 C   0  0  0  0  0  0  0  0  0  0  0  0
  -10.0615    2.1838    0.0000 C   0  0  0  0  0  0  0  0  0  0  0  0
  -11.2750    1.3021    0.0000 C   0  0  0  0  0  0  0  0  0  0  0  0
  -12.4885    0.4204    0.0000 C   0  0  0  0  0  0  0  0  0  0  0  0
   -8.5344    0.0819    0.0000 C   0  0  0  0  0  0  0  0  0  0  0  0
   -9.7479   -0.7998    0.0000 O   0  0  0  0  0  0  0  0  0  0  0  0
   -7.1640   -0.5282    0.0000 O   0  0  0  0  0  0  0  0  0  0  0  0
  1  2  1  0
  1  3  1  0
  3  4  1  6
  4  5  1  0
  5  6  1  0
  5  7  1  0
  3  8  1  0
  8  9  2  0
  8 10  1  0
 10 11  1  0
 11 12  1  1
 12 13  1  0
 13 14  1  0
 13 15  1  0
 11 16  1  0
 16 17  2  0
 16 18  1  0
 18 19  1  0
 19 20  1  0
 20 21  1  0
 21 22  1  0
 22 23  1  1
 23 24  2  0
 23 25  1  0
 25 26  1  0
 25 27  1  0
 27 28  1  1
 28 29  1  0
 29 30  1  0
 29 31  1  0
 27 32  1  0
 32 33  2  0
 32 34  1  0
 34 35  1  0
 35 36  1  1
 36 37  1  0
 37 38  1  0
 37 39  1  0
 35 40  1  0
 40 41  2  0
 40 42  1  0
 42 43  1  0
 43 44  1  0
 44 45  1  0
 45 46  1  0
 46 47  1  6
 47 48  2  0
 47 49  1  0
 49 50  1  0
 50 51  1  6
 51 52  1  0
 52 53  3  0
 50 54  1  0
 54 55  2  0
 54 56  1  0
 22 18  1  0
 46 42  1  0
M  END
$$$$

     RDKit          2D

 56 57  0  0  0  0  0  0  0  0999 V2000
   -2.4876  -12.5103    0.0000 N   0  0  0  0  0  0  0  0  0  0  0  0
   -3.7012  -13.3920    0.0000 C   0  0  0  0  0  0  0  0  0  0  0  0
   -1.1173  -13.1204    0.0000 C   0  0  0  0  0  0  0  0  0  0  0  0
   -0.9605  -14.6122    0.0000 C   0  0  0  0  0  0  0  0  0  0  0  0
   -2.1741  -15.4938    0.0000 C   0  0  0  0  0  0  0  0  0  0  0  0
   -2.0173  -16.9856    0.0000 C   0  0  0  0  0  0  0  0  0  0  0  0
   -3.5444  -14.8837    0.0000 C   0  0  0  0  0  0  0  0  0  0  0  0
    0.0962  -12.2387    0.0000 C   0  0  0  0  0  0  0  0  0  0  0  0
    1.4665  -12.8488    0.0000 O   0  0  0  0  0  0  0  0  0  0  0  0
   -0.0606  -10.7469    0.0000 N   0  0  0  0  0  0  0  0  0  0  0  0
    1.1529   -9.8652    0.0000 C   0  0  0  0  0  0  0  0  0  0  0  0
    2.5233  -10.4753    0.0000 C   0  0  0  0  0  0  0  0  0  0  0  0
    3.7368   -9.5937    0.0000 C   0  0  0  0  0  0  0  0  0  0  0  0
    5.1071  -10.2038    0.0000 C   0  0  0  0  0  0  0  0  0  0  0  0
    3.5800   -8.1019    0.0000 C   0  0  0  0  0  0  0  0  0  0  0  0
    0.9961   -8.3735    0.0000 C   0  0  0  0  0  0  0  0  0  0  0  0
    2.2097   -7.4918    0.0000 O   0  0  0  0  0  0  0  0  0  0  0  0
   -0.3742   -7.7634    0.0000 N   0  0  0  0  0  0  0  0  0  0  0  0
   -1.6732   -8.5134    0.0000 C   0  0  0  0  0  0  0  0  0  0  0  0
   -2.7879   -7.5097    0.0000 C   0  0  0  0  0  0  0  0  0  0  0  0
   -2.1778   -6.1393    0.0000 C   0  0  0  0  0  0  0  0  0  0  0  0
   -0.6860   -6.2961    0.0000 C   0  0  0  0  0  0  0  0  0  0  0  0
    0.3177   -5.1814    0.0000 C   0  0  0  0  0  0  0  0  0  0  0  0
    1.7849   -5.4933    0.0000 O   0  0  0  0  0  0  0  0  0  0  0  0
   -0.1459   -3.7548    0.0000 N   0  0  0  0  0  0  0  0  0  0  0  0
    0.8578   -2.6401    0.0000 C   0  0  0  0  0  0  0  0  0  0  0  0
   -1.6131   -3.4430    0.0000 C   0  0  0  0  0  0  0  0  0  0  0  0
   -2.6168   -4.5577    0.0000 C   0  0  0  0  0  0  0  0  0  0  0  0
   -4.0840   -4.2458    0.0000 C   0  0  0  0  0  0  0  0  0  0  0  0
   -5.0877   -5.3605    0.0000 C   0  0  0  0  0  0  0  0  0  0  0  0
   -4.5475   -2.8192    0.0000 C   0  0  0  0  0  0  0  0  0  0  0  0
   -2.0766   -2.0164    0.0000 C   0  0  0  0  0  0  0  0  0  0  0  0
   -3.5438   -1.7045    0.0000 O   0  0  0  0  0  0  0  0  0  0  0  0
   -1.0729   -0.9017    0.0000 N   0  0  0  0  0  0  0  0  0  0  0  0
   -1.5364    0.5249    0.0000 C   0  0  0  0  0  0  0  0  0  0  0  0
   -0.5328    1.6396    0.0000 C   0  0  0  0  0  0  0  0  0  0  0  0
    0.9345    1.3278    0.0000 C   0  0  0  0  0  0  0  0  0  0  0  0
    1.9382    2.4425    0.0000 C   0  0  0  0  0  0  0  0  0  0  0  0
    1.3980   -0.0988    0.0000 C   0  0  0  0  0  0  0  0  0  0  0  0
   -3.0037    0.8368    0.0000 C   0  0  0  0  0  0  0  0  0  0  0  0
   -4.0074   -0.2779    0.0000 O   0  0  0  0  0  0  0  0  0  0  0  0
   -3.4672    2.2634    0.0000 N   0  0  0  0  0  0  0  0  0  0  0  0
   -2.5855    3.4769    0.0000 C   0  0  0  0  0  0  0  0  0  0  0  0
   -3.4672    4.6904    0.0000 C   0  0  0  0  0  0  0  0  0  0  0  0
   -4.8938    4.2269    0.0000 C   0  0  0  0  0  0  0  0  0  0  0  0
   -4.8938    2.7269    0.0000 C   0  0  0  0  0  0  0  0  0  0  0  0
   -6.1073    1.8452    0.0000 C   0  0  0  0  0  0  0  0  0  0  0  0
   -5.9505    0.3534    0.0000 O   0  0  0  0  0  0  0  0  0  0  0  0
   -7.4776    2.4553    0.0000 N   0  0  0  0  0  0  0  0  0  0  0  0
   -8.6911    1.5737    0.0000 C   0  0  0  0  0  0  0  0  0  0  0  0
  -10.0615    2.1838    0.0000 C   0  0  0  0  0  0  0  0  0  0  0  0
  -11.2750    1.3021    0.0000 C   0  0  0  0  0  0  0  0  0  0  0  0
  -12.4885    0.4204    0.0000 C   0  0  0  0  0  0  0  0  0  0  0  0
   -8.5344    0.0819    0.0000 C   0  0  0  0  0  0  0  0  0  0  0  0
   -9.7479   -0.7998    0.0000 O   0  0  0  0  0  0  0  0  0  0  0  0
   -7.1640   -0.5282    0.0000 O   0  0  0  0  0  0  0  0  0  0  0  0
  1  2  1  0
  1  3  1  0
  3  4  1  1
  4  5  1  0
  5  6  1  0
  5  7  1  0
  3  8  1  0
  8  9  2  0
  8 10  1  0
 10 11  1  0
 11 12  1  1
 12 13  1  0
 13 14  1  0
 13 15  1  0
 11 16  1  0
 16 17  2  0
 16 18  1  0
 18 19  1  0
 19 20  1  0
 20 21  1  0
 21 22  1  0
 22 23  1  1
 23 24  2  0
 23 25  1  0
 25 26  1  0
 25 27  1  0
 27 28  1  1
 28 29  1  0
 29 30  1  0
 29 31  1  0
 27 32  1  0
 32 33  2  0
 32 34  1  0
 34 35  1  0
 35 36  1  1
 36 37  1  0
 37 38  1  0
 37 39  1  0
 35 40  1  0
 40 41  2  0
 40 42  1  0
 42 43  1  0
 43 44  1  0
 44 45  1  0
 45 46  1  0
 46 47  1  6
 47 48  2  0
 47 49  1  0
 49 50  1  0
 50 51  1  6
 51 52  1  0
 52 53  3  0
 50 54  1  0
 54 55  2  0
 54 56  1  0
 22 18  1  0
 46 42  1  0
M  END
$$$$

     RDKit          2D

 56 57  0  0  0  0  0  0  0  0999 V2000
    8.0260   -1.2990    0.0000 N   0  0  0  0  0  0  0  0  0  0  0  0
    7.2760   -0.0000    0.0000 C   0  0  0  0  0  0  0  0  0  0  0  0
    8.0260    1.2990    0.0000 C   0  0  0  0  0  0  0  0  0  0  0  0
    9.5260    1.2990    0.0000 C   0  0  0  0  0  0  0  0  0  0  0  0
   10.2760    2.5981    0.0000 C   0  0  0  0  0  0  0  0  0  0  0  0
   10.2760    0.0000    0.0000 C   0  0  0  0  0  0  0  0  0  0  0  0
    5.7760   -0.0000    0.0000 C   0  0  0  0  0  0  0  0  0  0  0  0
    5.0260    1.2990    0.0000 O   0  0  0  0  0  0  0  0  0  0  0  0
    5.0260   -1.2990    0.0000 N   0  0  0  0  0  0  0  0  0  0  0  0
    5.7760   -2.5981    0.0000 C   0  0  0  0  0  0  0  0  0  0  0  0
    3.5260   -1.2990    0.0000 C   0  0  0  0  0  0  0  0  0  0  0  0
    2.7760   -2.5981    0.0000 C   0  0  0  0  0  0  0  0  0  0  0  0
    3.5260   -3.8971    0.0000 C   0  0  0  0  0  0  0  0  0  0  0  0
    2.7760   -5.1962    0.0000 C   0  0  0  0  0  0  0  0  0  0  0  0
    5.0260   -3.8971    0.0000 C   0  0  0  0  0  0  0  0  0  0  0  0
    2.7760   -0.0000    0.0000 C   0  0  0  0  0  0  0  0  0  0  0  0
    3.5260    1.2990    0.0000 O   0  0  0  0  0  0  0  0  0  0  0  0
    1.2760    0.0000    0.0000 N   0  0  0  0  0  0  0  0  0  0  0  0
    0.3943    1.2135    0.0000 C   0  0  0  0  0  0  0  0  0  0  0  0
   -1.0323    0.7500    0.0000 C   0  0  0  0  0  0  0  0  0  0  0  0
   -1.0323   -0.7500    0.0000 C   0  0  0  0  0  0  0  0  0  0  0  0
    0.3943   -1.2135    0.0000 C   0  0  0  0  0  0  0  0  0  0  0  0
    0.8578   -2.6401    0.0000 C   0  0  0  0  0  0  0  0  0  0  0  0
    2.2060   -3.2977    0.0000 O   0  0  0  0  0  0  0  0  0  0  0  0
   -0.1459   -3.7548    0.0000 N   0  0  0  0  0  0  0  0  0  0  0  0
    0.3177   -5.1814    0.0000 C   0  0  0  0  0  0  0  0  0  0  0  0
   -1.6131   -3.4430    0.0000 C   0  0  0  0  0  0  0  0  0  0  0  0
   -2.6168   -4.5577    0.0000 C   0  0  0  0  0  0  0  0  0  0  0  0
   -4.0840   -4.2458    0.0000 C   0  0  0  0  0  0  0  0  0  0  0  0
   -5.0877   -5.3605    0.0000 C   0  0  0  0  0  0  0  0  0  0  0  0
   -4.5475   -2.8192    0.0000 C   0  0  0  0  0  0  0  0  0  0  0  0
   -2.0766   -2.0164    0.0000 C   0  0  0  0  0  0  0  0  0  0  0  0
   -1.7024   -1.3125    0.0000 O   0  0  0  0  0  0  0  0  0  0  0  0
   -3.5438   -1.7045    0.0000 N   0  0  0  0  0  0  0  0  0  0  0  0
   -4.0074   -0.2779    0.0000 C   0  0  0  0  0  0  0  0  0  0  0  0
   -5.4746    0.0339    0.0000 C   0  0  0  0  0  0  0  0  0  0  0  0
   -5.9381    1.4605    0.0000 C   0  0  0  0  0  0  0  0  0  0  0  0
   -7.4053    1.7724    0.0000 C   0  0  0  0  0  0  0  0  0  0  0  0
   -5.2340    2.7850    0.0000 C   0  0  0  0  0  0  0  0  0  0  0  0
   -3.0037    0.8368    0.0000 C   0  0  0  0  0  0  0  0  0  0  0  0
   -1.5046    0.8892    0.0000 O   0  0  0  0  0  0  0  0  0  0  0  0
   -3.4672    2.2634    0.0000 N   0  0  0  0  0  0  0  0  0  0  0  0
   -4.8938    2.7269    0.0000 C   0  0  0  0  0  0  0  0  0  0  0  0
   -4.8938    4.2269    0.0000 C   0  0  0  0  0  0  0  0  0  0  0  0
   -3.4672    4.6904    0.0000 C   0  0  0  0  0  0  0  0  0  0  0  0
   -2.5855    3.4769    0.0000 C   0  0  0  0  0  0  0  0  0  0  0  0
   -1.0855    3.4769    0.0000 C   0  0  0  0  0  0  0  0  0  0  0  0
   -0.3355    2.1779    0.0000 O   0  0  0  0  0  0  0  0  0  0  0  0
   -0.3355    4.7759    0.0000 N   0  0  0  0  0  0  0  0  0  0  0  0
    1.1645    4.7759    0.0000 C   0  0  0  0  0  0  0  0  0  0  0  0
    1.9145    6.0750    0.0000 C   0  0  0  0  0  0  0  0  0  0  0  0
    3.4145    6.0750    0.0000 C   0  0  0  0  0  0  0  0  0  0  0  0
    4.9145    6.0750    0.0000 C   0  0  0  0  0  0  0  0  0  0  0  0
    1.9145    3.4769    0.0000 C   0  0  0  0  0  0  0  0  0  0  0  0
    1.1645    2.1779    0.0000 O   0  0  0  0  0  0  0  0  0  0  0  0
    3.4145    3.4769    0.0000 O   0  0  0  0  0  0  0  0  0  0  0  0
  2  1  1  6
  2  3  1  0
  3  4  1  0
  4  5  1  0
  4  6  1  0
  2  7  1  0
  7  8  2  0
  7  9  1  0
  9 10  1  0
  9 11  1  0
 11 12  1  1
 12 13  1  0
 13 14  1  0
 13 15  1  0
 11 16  1  0
 16 17  2  0
 16 18  1  0
 18 19  1  0
 19 20  1  0
 20 21  1  0
 21 22  1  0
 22 23  1  6
 23 24  2  0
 23 25  1  0
 25 26  1  0
 25 27  1  0
 27 28  1  1
 28 29  1  0
 29 30  1  0
 29 31  1  0
 27 32  1  0
 32 33  2  0
 32 34  1  0
 34 35  1  0
 35 36  1  6
 36 37  1  0
 37 38  1  0
 37 39  1  0
 35 40  1  0
 40 41  2  0
 40 42  1  0
 42 43  1  0
 43 44  1  0
 44 45  1  0
 45 46  1  0
 46 47  1  1
 47 48  2  0
 47 49  1  0
 49 50  1  0
 50 51  1  1
 51 52  1  0
 52 53  3  0
 50 54  1  0
 54 55  2  0
 54 56  1  0
 22 18  1  0
 46 42  1  0
M  END
$$$$

     RDKit          2D

 56 57  0  0  0  0  0  0  0  0999 V2000
    8.0260   -1.2990    0.0000 N   0  0  0  0  0  0  0  0  0  0  0  0
    7.2760   -0.0000    0.0000 C   0  0  0  0  0  0  0  0  0  0  0  0
    8.0260    1.2990    0.0000 C   0  0  0  0  0  0  0  0  0  0  0  0
    9.5260    1.2990    0.0000 C   0  0  0  0  0  0  0  0  0  0  0  0
   10.2760    2.5981    0.0000 C   0  0  0  0  0  0  0  0  0  0  0  0
   10.2760    0.0000    0.0000 C   0  0  0  0  0  0  0  0  0  0  0  0
    5.7760   -0.0000    0.0000 C   0  0  0  0  0  0  0  0  0  0  0  0
    5.0260    1.2990    0.0000 O   0  0  0  0  0  0  0  0  0  0  0  0
    5.0260   -1.2990    0.0000 N   0  0  0  0  0  0  0  0  0  0  0  0
    5.7760   -2.5981    0.0000 C   0  0  0  0  0  0  0  0  0  0  0  0
    3.5260   -1.2990    0.0000 C   0  0  0  0  0  0  0  0  0  0  0  0
    2.7760   -2.5981    0.0000 C   0  0  0  0  0  0  0  0  0  0  0  0
    3.5260   -3.8971    0.0000 C   0  0  0  0  0  0  0  0  0  0  0  0
    2.7760   -5.1962    0.0000 C   0  0  0  0  0  0  0  0  0  0  0  0
    5.0260   -3.8971    0.0000 C   0  0  0  0  0  0  0  0  0  0  0  0
    2.7760   -0.0000    0.0000 C   0  0  0  0  0  0  0  0  0  0  0  0
    3.5260    1.2990    0.0000 O   0  0  0  0  0  0  0  0  0  0  0  0
    1.2760    0.0000    0.0000 N   0  0  0  0  0  0  0  0  0  0  0  0
    0.3943    1.2135    0.0000 C   0  0  0  0  0  0  0  0  0  0  0  0
   -1.0323    0.7500    0.0000 C   0  0  0  0  0  0  0  0  0  0  0  0
   -1.0323   -0.7500    0.0000 C   0  0  0  0  0  0  0  0  0  0  0  0
    0.3943   -1.2135    0.0000 C   0  0  0  0  0  0  0  0  0  0  0  0
    0.8578   -2.6401    0.0000 C   0  0  0  0  0  0  0  0  0  0  0  0
    2.2060   -3.2977    0.0000 O   0  0  0  0  0  0  0  0  0  0  0  0
   -0.1459   -3.7548    0.0000 N   0  0  0  0  0  0  0  0  0  0  0  0
    0.3177   -5.1814    0.0000 C   0  0  0  0  0  0  0  0  0  0  0  0
   -1.6131   -3.4430    0.0000 C   0  0  0  0  0  0  0  0  0  0  0  0
   -2.6168   -4.5577    0.0000 C   0  0  0  0  0  0  0  0  0  0  0  0
   -4.0840   -4.2458    0.0000 C   0  0  0  0  0  0  0  0  0  0  0  0
   -5.0877   -5.3605    0.0000 C   0  0  0  0  0  0  0  0  0  0  0  0
   -4.5475   -2.8192    0.0000 C   0  0  0  0  0  0  0  0  0  0  0  0
   -2.0766   -2.0164    0.0000 C   0  0  0  0  0  0  0  0  0  0  0  0
   -1.7024   -1.3125    0.0000 O   0  0  0  0  0  0  0  0  0  0  0  0
   -3.5438   -1.7045    0.0000 N   0  0  0  0  0  0  0  0  0  0  0  0
   -4.0074   -0.2779    0.0000 C   0  0  0  0  0  0  0  0  0  0  0  0
   -5.4746    0.0339    0.0000 C   0  0  0  0  0  0  0  0  0  0  0  0
   -5.9381    1.4605    0.0000 C   0  0  0  0  0  0  0  0  0  0  0  0
   -7.4053    1.7724    0.0000 C   0  0  0  0  0  0  0  0  0  0  0  0
   -5.2340    2.7850    0.0000 C   0  0  0  0  0  0  0  0  0  0  0  0
   -3.0037    0.8368    0.0000 C   0  0  0  0  0  0  0  0  0  0  0  0
   -1.5046    0.8892    0.0000 O   0  0  0  0  0  0  0  0  0  0  0  0
   -3.4672    2.2634    0.0000 N   0  0  0  0  0  0  0  0  0  0  0  0
   -4.8938    2.7269    0.0000 C   0  0  0  0  0  0  0  0  0  0  0  0
   -4.8938    4.2269    0.0000 C   0  0  0  0  0  0  0  0  0  0  0  0
   -3.4672    4.6904    0.0000 C   0  0  0  0  0  0  0  0  0  0  0  0
   -2.5855    3.4769    0.0000 C   0  0  0  0  0  0  0  0  0  0  0  0
   -1.0855    3.4769    0.0000 C   0  0  0  0  0  0  0  0  0  0  0  0
   -0.3355    2.1779    0.0000 O   0  0  0  0  0  0  0  0  0  0  0  0
   -0.3355    4.7759    0.0000 N   0  0  0  0  0  0  0  0  0  0  0  0
    1.1645    4.7759    0.0000 C   0  0  0  0  0  0  0  0  0  0  0  0
    1.9145    6.0750    0.0000 C   0  0  0  0  0  0  0  0  0  0  0  0
    3.4145    6.0750    0.0000 C   0  0  0  0  0  0  0  0  0  0  0  0
    4.9145    6.0750    0.0000 C   0  0  0  0  0  0  0  0  0  0  0  0
    1.9145    3.4769    0.0000 C   0  0  0  0  0  0  0  0  0  0  0  0
    1.1645    2.1779    0.0000 O   0  0  0  0  0  0  0  0  0  0  0  0
    3.4145    3.4769    0.0000 O   0  0  0  0  0  0  0  0  0  0  0  0
  2  1  1  1
  2  3  1  0
  3  4  1  0
  4  5  1  0
  4  6  1  0
  2  7  1  0
  7  8  2  0
  7  9  1  0
  9 10  1  0
  9 11  1  0
 11 12  1  1
 12 13  1  0
 13 14  1  0
 13 15  1  0
 11 16  1  0
 16 17  2  0
 16 18  1  0
 18 19  1  0
 19 20  1  0
 20 21  1  0
 21 22  1  0
 22 23  1  6
 23 24  2  0
 23 25  1  0
 25 26  1  0
 25 27  1  0
 27 28  1  1
 28 29  1  0
 29 30  1  0
 29 31  1  0
 27 32  1  0
 32 33  2  0
 32 34  1  0
 34 35  1  0
 35 36  1  6
 36 37  1  0
 37 38  1  0
 37 39  1  0
 35 40  1  0
 40 41  2  0
 40 42  1  0
 42 43  1  0
 43 44  1  0
 44 45  1  0
 45 46  1  0
 46 47  1  1
 47 48  2  0
 47 49  1  0
 49 50  1  0
 50 51  1  1
 51 52  1  0
 52 53  3  0
 50 54  1  0
 54 55  2  0
 54 56  1  0
 22 18  1  0
 46 42  1  0
M  END
$$$$

     RDKit          2D

 40 40  0  0  0  0  0  0  0  0999 V2000
   -1.7240    5.1962    0.0000 N   0  0  0  0  0  0  0  0  0  0  0  0
   -0.9740    3.8971    0.0000 C   0  0  0  0  0  0  0  0  0  0  0  0
   -1.7240    2.5981    0.0000 C   0  0  0  0  0  0  0  0  0  0  0  0
   -3.2240    2.5981    0.0000 C   0  0  0  0  0  0  0  0  0  0  0  0
   -3.9740    1.2990    0.0000 C   0  0  0  0  0  0  0  0  0  0  0  0
   -3.9740    3.8971    0.0000 C   0  0  0  0  0  0  0  0  0  0  0  0
    0.5260    3.8971    0.0000 C   0  0  0  0  0  0  0  0  0  0  0  0
    1.2760    2.5981    0.0000 O   0  0  0  0  0  0  0  0  0  0  0  0
    1.2760    5.1962    0.0000 N   0  0  0  0  0  0  0  0  0  0  0  0
    0.5260    6.4952    0.0000 C   0  0  0  0  0  0  0  0  0  0  0  0
    2.7760    5.1962    0.0000 C   0  0  0  0  0  0  0  0  0  0  0  0
    3.5260    6.4952    0.0000 C   0  0  0  0  0  0  0  0  0  0  0  0
    2.7760    7.7942    0.0000 C   0  0  0  0  0  0  0  0  0  0  0  0
    3.5260    9.0933    0.0000 C   0  0  0  0  0  0  0  0  0  0  0  0
    1.2760    7.7942    0.0000 C   0  0  0  0  0  0  0  0  0  0  0  0
    3.5260    3.8971    0.0000 C   0  0  0  0  0  0  0  0  0  0  0  0
    5.0260    3.8971    0.0000 O   0  0  0  0  0  0  0  0  0  0  0  0
    2.7760    2.5981    0.0000 N   0  0  0  0  0  0  0  0  0  0  0  0
    3.5260    1.2990    0.0000 C   0  0  0  0  0  0  0  0  0  0  0  0
    5.0260    1.2990    0.0000 C   0  0  0  0  0  0  0  0  0  0  0  0
    5.7760    0.0000    0.0000 C   0  0  0  0  0  0  0  0  0  0  0  0
    7.2760    0.0000    0.0000 C   0  0  0  0  0  0  0  0  0  0  0  0
    5.0260   -1.2990    0.0000 C   0  0  0  0  0  0  0  0  0  0  0  0
    2.7760    0.0000    0.0000 C   0  0  0  0  0  0  0  0  0  0  0  0
    3.5260   -1.2990    0.0000 O   0  0  0  0  0  0  0  0  0  0  0  0
    1.2760    0.0000    0.0000 N   0  0  0  0  0  0  0  0  0  0  0  0
    0.3943    1.2135    0.0000 C   0  0  0  0  0  0  0  0  0  0  0  0
   -1.0323    0.7500    0.0000 C   0  0  0  0  0  0  0  0  0  0  0  0
   -1.0323   -0.7500    0.0000 C   0  0  0  0  0  0  0  0  0  0  0  0
    0.3943   -1.2135    0.0000 C   0  0  0  0  0  0  0  0  0  0  0  0
    0.8578   -2.6401    0.0000 C   0  0  0  0  0  0  0  0  0  0  0  0
    2.3250   -2.9520    0.0000 O   0  0  0  0  0  0  0  0  0  0  0  0
   -0.1459   -3.7548    0.0000 N   0  0  0  0  0  0  0  0  0  0  0  0
    0.3177   -5.1814    0.0000 C   0  0  0  0  0  0  0  0  0  0  0  0
   -0.6860   -6.2961    0.0000 C   0  0  0  0  0  0  0  0  0  0  0  0
   -0.2225   -7.7227    0.0000 C   0  0  0  0  0  0  0  0  0  0  0  0
    0.2410   -9.1493    0.0000 C   0  0  0  0  0  0  0  0  0  0  0  0
    1.7849   -5.4933    0.0000 C   0  0  0  0  0  0  0  0  0  0  0  0
    2.7886   -4.3786    0.0000 O   0  0  0  0  0  0  0  0  0  0  0  0
    2.2484   -6.9199    0.0000 O   0  0  0  0  0  0  0  0  0  0  0  0
  2  1  1  6
  2  3  1  0
  3  4  1  0
  4  5  1  0
  4  6  1  0
  2  7  1  0
  7  8  2  0
  7  9  1  0
  9 10  1  0
  9 11  1  0
 11 12  1  6
 12 13  1  0
 13 14  1  0
 13 15  1  0
 11 16  1  0
 16 17  2  0
 16 18  1  0
 18 19  1  0
 19 20  1  6
 20 21  1  0
 21 22  1  0
 21 23  1  0
 19 24  1  0
 24 25  2  0
 24 26  1  0
 26 27  1  0
 27 28  1  0
 28 29  1  0
 29 30  1  0
 30 31  1  6
 31 32  2  0
 31 33  1  0
 33 34  1  0
 34 35  1  6
 35 36  1  0
 36 37  3  0
 34 38  1  0
 38 39  2  0
 38 40  1  0
 30 26  1  0
M  END
$$$$

     RDKit          2D

 40 40  0  0  0  0  0  0  0  0999 V2000
   -1.7240    5.1962    0.0000 N   0  0  0  0  0  0  0  0  0  0  0  0
   -0.9740    3.8971    0.0000 C   0  0  0  0  0  0  0  0  0  0  0  0
   -1.7240    2.5981    0.0000 C   0  0  0  0  0  0  0  0  0  0  0  0
   -3.2240    2.5981    0.0000 C   0  0  0  0  0  0  0  0  0  0  0  0
   -3.9740    1.2990    0.0000 C   0  0  0  0  0  0  0  0  0  0  0  0
   -3.9740    3.8971    0.0000 C   0  0  0  0  0  0  0  0  0  0  0  0
    0.5260    3.8971    0.0000 C   0  0  0  0  0  0  0  0  0  0  0  0
    1.2760    2.5981    0.0000 O   0  0  0  0  0  0  0  0  0  0  0  0
    1.2760    5.1962    0.0000 N   0  0  0  0  0  0  0  0  0  0  0  0
    0.5260    6.4952    0.0000 C   0  0  0  0  0  0  0  0  0  0  0  0
    2.7760    5.1962    0.0000 C   0  0  0  0  0  0  0  0  0  0  0  0
    3.5260    6.4952    0.0000 C   0  0  0  0  0  0  0  0  0  0  0  0
    2.7760    7.7942    0.0000 C   0  0  0  0  0  0  0  0  0  0  0  0
    3.5260    9.0933    0.0000 C   0  0  0  0  0  0  0  0  0  0  0  0
    1.2760    7.7942    0.0000 C   0  0  0  0  0  0  0  0  0  0  0  0
    3.5260    3.8971    0.0000 C   0  0  0  0  0  0  0  0  0  0  0  0
    5.0260    3.8971    0.0000 O   0  0  0  0  0  0  0  0  0  0  0  0
    2.7760    2.5981    0.0000 N   0  0  0  0  0  0  0  0  0  0  0  0
    3.5260    1.2990    0.0000 C   0  0  0  0  0  0  0  0  0  0  0  0
    5.0260    1.2990    0.0000 C   0  0  0  0  0  0  0  0  0  0  0  0
    5.7760    0.0000    0.0000 C   0  0  0  0  0  0  0  0  0  0  0  0
    7.2760    0.0000    0.0000 C   0  0  0  0  0  0  0  0  0  0  0  0
    5.0260   -1.2990    0.0000 C   0  0  0  0  0  0  0  0  0  0  0  0
    2.7760    0.0000    0.0000 C   0  0  0  0  0  0  0  0  0  0  0  0
    3.5260   -1.2990    0.0000 O   0  0  0  0  0  0  0  0  0  0  0  0
    1.2760    0.0000    0.0000 N   0  0  0  0  0  0  0  0  0  0  0  0
    0.3943    1.2135    0.0000 C   0  0  0  0  0  0  0  0  0  0  0  0
   -1.0323    0.7500    0.0000 C   0  0  0  0  0  0  0  0  0  0  0  0
   -1.0323   -0.7500    0.0000 C   0  0  0  0  0  0  0  0  0  0  0  0
    0.3943   -1.2135    0.0000 C   0  0  0  0  0  0  0  0  0  0  0  0
    0.8578   -2.6401    0.0000 C   0  0  0  0  0  0  0  0  0  0  0  0
    2.3250   -2.9520    0.0000 O   0  0  0  0  0  0  0  0  0  0  0  0
   -0.1459   -3.7548    0.0000 N   0  0  0  0  0  0  0  0  0  0  0  0
    0.3177   -5.1814    0.0000 C   0  0  0  0  0  0  0  0  0  0  0  0
   -0.6860   -6.2961    0.0000 C   0  0  0  0  0  0  0  0  0  0  0  0
   -0.2225   -7.7227    0.0000 C   0  0  0  0  0  0  0  0  0  0  0  0
    0.2410   -9.1493    0.0000 C   0  0  0  0  0  0  0  0  0  0  0  0
    1.7849   -5.4933    0.0000 C   0  0  0  0  0  0  0  0  0  0  0  0
    2.7886   -4.3786    0.0000 O   0  0  0  0  0  0  0  0  0  0  0  0
    2.2484   -6.9199    0.0000 O   0  0  0  0  0  0  0  0  0  0  0  0
  2  1  1  1
  2  3  1  0
  3  4  1  0
  4  5  1  0
  4  6  1  0
  2  7  1  0
  7  8  2  0
  7  9  1  0
  9 10  1  0
  9 11  1  0
 11 12  1  6
 12 13  1  0
 13 14  1  0
 13 15  1  0
 11 16  1  0
 16 17  2  0
 16 18  1  0
 18 19  1  0
 19 20  1  6
 20 21  1  0
 21 22  1  0
 21 23  1  0
 19 24  1  0
 24 25  2  0
 24 26  1  0
 26 27  1  0
 27 28  1  0
 28 29  1  0
 29 30  1  0
 30 31  1  6
 31 32  2  0
 31 33  1  0
 33 34  1  0
 34 35  1  6
 35 36  1  0
 36 37  3  0
 34 38  1  0
 38 39  2  0
 38 40  1  0
 30 26  1  0
M  END
$$$$

     RDKit          2D

 39 39  0  0  0  0  0  0  0  0999 V2000
    5.0260    9.0933    0.0000 N   0  0  0  0  0  0  0  0  0  0  0  0
    5.7760    7.7942    0.0000 C   0  0  0  0  0  0  0  0  0  0  0  0
    7.2760    7.7942    0.0000 C   0  0  0  0  0  0  0  0  0  0  0  0
    8.0260    9.0933    0.0000 C   0  0  0  0  0  0  0  0  0  0  0  0
    8.0260    6.4952    0.0000 C   0  0  0  0  0  0  0  0  0  0  0  0
    5.0260    6.4952    0.0000 C   0  0  0  0  0  0  0  0  0  0  0  0
    5.7760    5.1962    0.0000 O   0  0  0  0  0  0  0  0  0  0  0  0
    3.5260    6.4952    0.0000 N   0  0  0  0  0  0  0  0  0  0  0  0
    2.7760    7.7942    0.0000 C   0  0  0  0  0  0  0  0  0  0  0  0
    2.7760    5.1962    0.0000 C   0  0  0  0  0  0  0  0  0  0  0  0
    1.2760    5.1962    0.0000 C   0  0  0  0  0  0  0  0  0  0  0  0
    0.5260    6.4952    0.0000 C   0  0  0  0  0  0  0  0  0  0  0  0
   -0.9740    6.4952    0.0000 C   0  0  0  0  0  0  0  0  0  0  0  0
    1.2760    7.7942    0.0000 C   0  0  0  0  0  0  0  0  0  0  0  0
    3.5260    3.8971    0.0000 C   0  0  0  0  0  0  0  0  0  0  0  0
    5.0260    3.8971    0.0000 O   0  0  0  0  0  0  0  0  0  0  0  0
    2.7760    2.5981    0.0000 N   0  0  0  0  0  0  0  0  0  0  0  0
    3.5260    1.2990    0.0000 C   0  0  0  0  0  0  0  0  0  0  0  0
    5.0260    1.2990    0.0000 C   0  0  0  0  0  0  0  0  0  0  0  0
    5.7760    0.0000    0.0000 C   0  0  0  0  0  0  0  0  0  0  0  0
    7.2760    0.0000    0.0000 C   0  0  0  0  0  0  0  0  0  0  0  0
    5.0260   -1.2990    0.0000 C   0  0  0  0  0  0  0  0  0  0  0  0
    2.7760   -0.0000    0.0000 C   0  0  0  0  0  0  0  0  0  0  0  0
    3.5260   -1.2990    0.0000 O   0  0  0  0  0  0  0  0  0  0  0  0
    1.2760   -0.0000    0.0000 N   0  0  0  0  0  0  0  0  0  0  0  0
    0.3943    1.2135    0.0000 C   0  0  0  0  0  0  0  0  0  0  0  0
   -1.0323    0.7500    0.0000 C   0  0  0  0  0  0  0  0  0  0  0  0
   -1.0323   -0.7500    0.0000 C   0  0  0  0  0  0  0  0  0  0  0  0
    0.3943   -1.2135    0.0000 C   0  0  0  0  0  0  0  0  0  0  0  0
    0.8578   -2.6401    0.0000 C   0  0  0  0  0  0  0  0  0  0  0  0
    2.3250   -2.9520    0.0000 O   0  0  0  0  0  0  0  0  0  0  0  0
   -0.1459   -3.7548    0.0000 N   0  0  0  0  0  0  0  0  0  0  0  0
    0.3177   -5.1814    0.0000 C   0  0  0  0  0  0  0  0  0  0  0  0
   -0.6860   -6.2961    0.0000 C   0  0  0  0  0  0  0  0  0  0  0  0
   -0.2225   -7.7227    0.0000 C   0  0  0  0  0  0  0  0  0  0  0  0
    0.2410   -9.1493    0.0000 C   0  0  0  0  0  0  0  0  0  0  0  0
    1.7849   -5.4933    0.0000 C   0  0  0  0  0  0  0  0  0  0  0  0
    2.7886   -4.3786    0.0000 O   0  0  0  0  0  0  0  0  0  0  0  0
    2.2484   -6.9199    0.0000 O   0  0  0  0  0  0  0  0  0  0  0  0
  2  1  1  1
  2  3  1  0
  3  4  1  0
  3  5  1  0
  2  6  1  0
  6  7  2  0
  6  8  1  0
  8  9  1  0
  8 10  1  0
 10 11  1  1
 11 12  1  0
 12 13  1  0
 12 14  1  0
 10 15  1  0
 15 16  2  0
 15 17  1  0
 17 18  1  0
 18 19  1  6
 19 20  1  0
 20 21  1  0
 20 22  1  0
 18 23  1  0
 23 24  2  0
 23 25  1  0
 25 26  1  0
 26 27  1  0
 27 28  1  0
 28 29  1  0
 29 30  1  6
 30 31  2  0
 30 32  1  0
 32 33  1  0
 33 34  1  6
 34 35  1  0
 35 36  3  0
 33 37  1  0
 37 38  2  0
 37 39  1  0
 29 25  1  0
M  END
$$$$

     RDKit          2D

 39 39  0  0  0  0  0  0  0  0999 V2000
    5.0260    9.0933    0.0000 N   0  0  0  0  0  0  0  0  0  0  0  0
    5.7760    7.7942    0.0000 C   0  0  0  0  0  0  0  0  0  0  0  0
    7.2760    7.7942    0.0000 C   0  0  0  0  0  0  0  0  0  0  0  0
    8.0260    9.0933    0.0000 C   0  0  0  0  0  0  0  0  0  0  0  0
    8.0260    6.4952    0.0000 C   0  0  0  0  0  0  0  0  0  0  0  0
    5.0260    6.4952    0.0000 C   0  0  0  0  0  0  0  0  0  0  0  0
    5.7760    5.1962    0.0000 O   0  0  0  0  0  0  0  0  0  0  0  0
    3.5260    6.4952    0.0000 N   0  0  0  0  0  0  0  0  0  0  0  0
    2.7760    7.7942    0.0000 C   0  0  0  0  0  0  0  0  0  0  0  0
    2.7760    5.1962    0.0000 C   0  0  0  0  0  0  0  0  0  0  0  0
    1.2760    5.1962    0.0000 C   0  0  0  0  0  0  0  0  0  0  0  0
    0.5260    6.4952    0.0000 C   0  0  0  0  0  0  0  0  0  0  0  0
   -0.9740    6.4952    0.0000 C   0  0  0  0  0  0  0  0  0  0  0  0
    1.2760    7.7942    0.0000 C   0  0  0  0  0  0  0  0  0  0  0  0
    3.5260    3.8971    0.0000 C   0  0  0  0  0  0  0  0  0  0  0  0
    5.0260    3.8971    0.0000 O   0  0  0  0  0  0  0  0  0  0  0  0
    2.7760    2.5981    0.0000 N   0  0  0  0  0  0  0  0  0  0  0  0
    3.5260    1.2990    0.0000 C   0  0  0  0  0  0  0  0  0  0  0  0
    5.0260    1.2990    0.0000 C   0  0  0  0  0  0  0  0  0  0  0  0
    5.7760    0.0000    0.0000 C   0  0  0  0  0  0  0  0  0  0  0  0
    7.2760    0.0000    0.0000 C   0  0  0  0  0  0  0  0  0  0  0  0
    5.0260   -1.2990    0.0000 C   0  0  0  0  0  0  0  0  0  0  0  0
    2.7760   -0.0000    0.0000 C   0  0  0  0  0  0  0  0  0  0  0  0
    3.5260   -1.2990    0.0000 O   0  0  0  0  0  0  0  0  0  0  0  0
    1.2760   -0.0000    0.0000 N   0  0  0  0  0  0  0  0  0  0  0  0
    0.3943    1.2135    0.0000 C   0  0  0  0  0  0  0  0  0  0  0  0
   -1.0323    0.7500    0.0000 C   0  0  0  0  0  0  0  0  0  0  0  0
   -1.0323   -0.7500    0.0000 C   0  0  0  0  0  0  0  0  0  0  0  0
    0.3943   -1.2135    0.0000 C   0  0  0  0  0  0  0  0  0  0  0  0
    0.8578   -2.6401    0.0000 C   0  0  0  0  0  0  0  0  0  0  0  0
    2.3250   -2.9520    0.0000 O   0  0  0  0  0  0  0  0  0  0  0  0
   -0.1459   -3.7548    0.0000 N   0  0  0  0  0  0  0  0  0  0  0  0
    0.3177   -5.1814    0.0000 C   0  0  0  0  0  0  0  0  0  0  0  0
   -0.6860   -6.2961    0.0000 C   0  0  0  0  0  0  0  0  0  0  0  0
   -0.2225   -7.7227    0.0000 C   0  0  0  0  0  0  0  0  0  0  0  0
    0.2410   -9.1493    0.0000 C   0  0  0  0  0  0  0  0  0  0  0  0
    1.7849   -5.4933    0.0000 C   0  0  0  0  0  0  0  0  0  0  0  0
    2.7886   -4.3786    0.0000 O   0  0  0  0  0  0  0  0  0  0  0  0
    2.2484   -6.9199    0.0000 O   0  0  0  0  0  0  0  0  0  0  0  0
  2  1  1  6
  2  3  1  0
  3  4  1  0
  3  5  1  0
  2  6  1  0
  6  7  2  0
  6  8  1  0
  8  9  1  0
  8 10  1  0
 10 11  1  1
 11 12  1  0
 12 13  1  0
 12 14  1  0
 10 15  1  0
 15 16  2  0
 15 17  1  0
 17 18  1  0
 18 19  1  6
 19 20  1  0
 20 21  1  0
 20 22  1  0
 18 23  1  0
 23 24  2  0
 23 25  1  0
 25 26  1  0
 26 27  1  0
 27 28  1  0
 28 29  1  0
 29 30  1  6
 30 31  2  0
 30 32  1  0
 32 33  1  0
 33 34  1  6
 34 35  1  0
 35 36  3  0
 33 37  1  0
 37 38  2  0
 37 39  1  0
 29 25  1  0
M  END
$$$$

     RDKit          2D

 41 41  0  0  0  0  0  0  0  0999 V2000
   -1.7240    5.1962    0.0000 N   0  0  0  0  0  0  0  0  0  0  0  0
   -3.2240    5.1962    0.0000 C   0  0  0  0  0  0  0  0  0  0  0  0
   -0.9740    3.8971    0.0000 C   0  0  0  0  0  0  0  0  0  0  0  0
   -1.7240    2.5981    0.0000 C   0  0  0  0  0  0  0  0  0  0  0  0
   -3.2240    2.5981    0.0000 C   0  0  0  0  0  0  0  0  0  0  0  0
   -3.9740    1.2990    0.0000 C   0  0  0  0  0  0  0  0  0  0  0  0
   -3.9740    3.8971    0.0000 C   0  0  0  0  0  0  0  0  0  0  0  0
    0.5260    3.8971    0.0000 C   0  0  0  0  0  0  0  0  0  0  0  0
    1.2760    2.5981    0.0000 O   0  0  0  0  0  0  0  0  0  0  0  0
    1.2760    5.1962    0.0000 N   0  0  0  0  0  0  0  0  0  0  0  0
    0.5260    6.4952    0.0000 C   0  0  0  0  0  0  0  0  0  0  0  0
    2.7760    5.1962    0.0000 C   0  0  0  0  0  0  0  0  0  0  0  0
    3.5260    6.4952    0.0000 C   0  0  0  0  0  0  0  0  0  0  0  0
    2.7760    7.7942    0.0000 C   0  0  0  0  0  0  0  0  0  0  0  0
    3.5260    9.0933    0.0000 C   0  0  0  0  0  0  0  0  0  0  0  0
    1.2760    7.7942    0.0000 C   0  0  0  0  0  0  0  0  0  0  0  0
    3.5260    3.8971    0.0000 C   0  0  0  0  0  0  0  0  0  0  0  0
    5.0260    3.8971    0.0000 O   0  0  0  0  0  0  0  0  0  0  0  0
    2.7760    2.5981    0.0000 N   0  0  0  0  0  0  0  0  0  0  0  0
    3.5260    1.2990    0.0000 C   0  0  0  0  0  0  0  0  0  0  0  0
    5.0260    1.2990    0.0000 C   0  0  0  0  0  0  0  0  0  0  0  0
    5.7760    0.0000    0.0000 C   0  0  0  0  0  0  0  0  0  0  0  0
    5.0260   -1.2990    0.0000 C   0  0  0  0  0  0  0  0  0  0  0  0
    7.2760    0.0000    0.0000 C   0  0  0  0  0  0  0  0  0  0  0  0
    2.7760    0.0000    0.0000 C   0  0  0  0  0  0  0  0  0  0  0  0
    3.5260   -1.2990    0.0000 O   0  0  0  0  0  0  0  0  0  0  0  0
    1.2760    0.0000    0.0000 N   0  0  0  0  0  0  0  0  0  0  0  0
    0.3943    1.2135    0.0000 C   0  0  0  0  0  0  0  0  0  0  0  0
   -1.0323    0.7500    0.0000 C   0  0  0  0  0  0  0  0  0  0  0  0
   -1.0323   -0.7500    0.0000 C   0  0  0  0  0  0  0  0  0  0  0  0
    0.3943   -1.2135    0.0000 C   0  0  0  0  0  0  0  0  0  0  0  0
    0.8578   -2.6401    0.0000 C   0  0  0  0  0  0  0  0  0  0  0  0
    2.3250   -2.9520    0.0000 O   0  0  0  0  0  0  0  0  0  0  0  0
   -0.1459   -3.7548    0.0000 N   0  0  0  0  0  0  0  0  0  0  0  0
    0.3177   -5.1814    0.0000 C   0  0  0  0  0  0  0  0  0  0  0  0
   -0.6860   -6.2961    0.0000 C   0  0  0  0  0  0  0  0  0  0  0  0
   -0.2225   -7.7227    0.0000 C   0  0  0  0  0  0  0  0  0  0  0  0
    0.2410   -9.1493    0.0000 C   0  0  0  0  0  0  0  0  0  0  0  0
    1.7849   -5.4933    0.0000 C   0  0  0  0  0  0  0  0  0  0  0  0
    2.7886   -4.3786    0.0000 O   0  0  0  0  0  0  0  0  0  0  0  0
    2.2484   -6.9199    0.0000 O   0  0  0  0  0  0  0  0  0  0  0  0
  1  2  1  0
  1  3  1  0
  3  4  1  6
  4  5  1  0
  5  6  1  0
  5  7  1  0
  3  8  1  0
  8  9  2  0
  8 10  1  0
 10 11  1  0
 10 12  1  0
 12 13  1  6
 13 14  1  0
 14 15  1  0
 14 16  1  0
 12 17  1  0
 17 18  2  0
 17 19  1  0
 19 20  1  0
 20 21  1  6
 21 22  1  0
 22 23  1  0
 22 24  1  0
 20 25  1  0
 25 26  2  0
 25 27  1  0
 27 28  1  0
 28 29  1  0
 29 30  1  0
 30 31  1  0
 31 32  1  6
 32 33  2  0
 32 34  1  0
 34 35  1  0
 35 36  1  6
 36 37  1  0
 37 38  3  0
 35 39  1  0
 39 40  2  0
 39 41  1  0
 31 27  1  0
M  END
$$$$

     RDKit          2D

 41 41  0  0  0  0  0  0  0  0999 V2000
   -1.7240    5.1962    0.0000 N   0  0  0  0  0  0  0  0  0  0  0  0
   -3.2240    5.1962    0.0000 C   0  0  0  0  0  0  0  0  0  0  0  0
   -0.9740    3.8971    0.0000 C   0  0  0  0  0  0  0  0  0  0  0  0
   -1.7240    2.5981    0.0000 C   0  0  0  0  0  0  0  0  0  0  0  0
   -3.2240    2.5981    0.0000 C   0  0  0  0  0  0  0  0  0  0  0  0
   -3.9740    1.2990    0.0000 C   0  0  0  0  0  0  0  0  0  0  0  0
   -3.9740    3.8971    0.0000 C   0  0  0  0  0  0  0  0  0  0  0  0
    0.5260    3.8971    0.0000 C   0  0  0  0  0  0  0  0  0  0  0  0
    1.2760    2.5981    0.0000 O   0  0  0  0  0  0  0  0  0  0  0  0
    1.2760    5.1962    0.0000 N   0  0  0  0  0  0  0  0  0  0  0  0
    0.5260    6.4952    0.0000 C   0  0  0  0  0  0  0  0  0  0  0  0
    2.7760    5.1962    0.0000 C   0  0  0  0  0  0  0  0  0  0  0  0
    3.5260    6.4952    0.0000 C   0  0  0  0  0  0  0  0  0  0  0  0
    2.7760    7.7942    0.0000 C   0  0  0  0  0  0  0  0  0  0  0  0
    3.5260    9.0933    0.0000 C   0  0  0  0  0  0  0  0  0  0  0  0
    1.2760    7.7942    0.0000 C   0  0  0  0  0  0  0  0  0  0  0  0
    3.5260    3.8971    0.0000 C   0  0  0  0  0  0  0  0  0  0  0  0
    5.0260    3.8971    0.0000 O   0  0  0  0  0  0  0  0  0  0  0  0
    2.7760    2.5981    0.0000 N   0  0  0  0  0  0  0  0  0  0  0  0
    3.5260    1.2990    0.0000 C   0  0  0  0  0  0  0  0  0  0  0  0
    5.0260    1.2990    0.0000 C   0  0  0  0  0  0  0  0  0  0  0  0
    5.7760    0.0000    0.0000 C   0  0  0  0  0  0  0  0  0  0  0  0
    5.0260   -1.2990    0.0000 C   0  0  0  0  0  0  0  0  0  0  0  0
    7.2760    0.0000    0.0000 C   0  0  0  0  0  0  0  0  0  0  0  0
    2.7760    0.0000    0.0000 C   0  0  0  0  0  0  0  0  0  0  0  0
    3.5260   -1.2990    0.0000 O   0  0  0  0  0  0  0  0  0  0  0  0
    1.2760    0.0000    0.0000 N   0  0  0  0  0  0  0  0  0  0  0  0
    0.3943    1.2135    0.0000 C   0  0  0  0  0  0  0  0  0  0  0  0
   -1.0323    0.7500    0.0000 C   0  0  0  0  0  0  0  0  0  0  0  0
   -1.0323   -0.7500    0.0000 C   0  0  0  0  0  0  0  0  0  0  0  0
    0.3943   -1.2135    0.0000 C   0  0  0  0  0  0  0  0  0  0  0  0
    0.8578   -2.6401    0.0000 C   0  0  0  0  0  0  0  0  0  0  0  0
    2.3250   -2.9520    0.0000 O   0  0  0  0  0  0  0  0  0  0  0  0
   -0.1459   -3.7548    0.0000 N   0  0  0  0  0  0  0  0  0  0  0  0
    0.3177   -5.1814    0.0000 C   0  0  0  0  0  0  0  0  0  0  0  0
   -0.6860   -6.2961    0.0000 C   0  0  0  0  0  0  0  0  0  0  0  0
   -0.2225   -7.7227    0.0000 C   0  0  0  0  0  0  0  0  0  0  0  0
    0.2410   -9.1493    0.0000 C   0  0  0  0  0  0  0  0  0  0  0  0
    1.7849   -5.4933    0.0000 C   0  0  0  0  0  0  0  0  0  0  0  0
    2.7886   -4.3786    0.0000 O   0  0  0  0  0  0  0  0  0  0  0  0
    2.2484   -6.9199    0.0000 O   0  0  0  0  0  0  0  0  0  0  0  0
  1  2  1  0
  1  3  1  0
  3  4  1  1
  4  5  1  0
  5  6  1  0
  5  7  1  0
  3  8  1  0
  8  9  2  0
  8 10  1  0
 10 11  1  0
 10 12  1  0
 12 13  1  6
 13 14  1  0
 14 15  1  0
 14 16  1  0
 12 17  1  0
 17 18  2  0
 17 19  1  0
 19 20  1  0
 20 21  1  6
 21 22  1  0
 22 23  1  0
 22 24  1  0
 20 25  1  0
 25 26  2  0
 25 27  1  0
 27 28  1  0
 28 29  1  0
 29 30  1  0
 30 31  1  0
 31 32  1  6
 32 33  2  0
 32 34  1  0
 34 35  1  0
 35 36  1  6
 36 37  1  0
 37 38  3  0
 35 39  1  0
 39 40  2  0
 39 41  1  0
 31 27  1  0
M  END
$$$$

     RDKit          2D

 43 44  0  0  0  0  0  0  0  0999 V2000
    1.5000   -7.7942    0.0000 N   0  0  0  0  0  0  0  0  0  0  0  0
    0.7500   -9.0933    0.0000 C   0  0  0  0  0  0  0  0  0  0  0  0
    1.5000  -10.3923    0.0000 C   0  0  0  0  0  0  0  0  0  0  0  0
    3.0000  -10.3923    0.0000 C   0  0  0  0  0  0  0  0  0  0  0  0
    3.7500  -11.6913    0.0000 C   0  0  0  0  0  0  0  0  0  0  0  0
    5.2500  -11.6913    0.0000 C   0  0  0  0  0  0  0  0  0  0  0  0
    6.0000  -10.3923    0.0000 C   0  0  0  0  0  0  0  0  0  0  0  0
    5.2500   -9.0933    0.0000 C   0  0  0  0  0  0  0  0  0  0  0  0
    3.7500   -9.0933    0.0000 C   0  0  0  0  0  0  0  0  0  0  0  0
   -0.7500   -9.0933    0.0000 C   0  0  0  0  0  0  0  0  0  0  0  0
   -1.5000  -10.3923    0.0000 O   0  0  0  0  0  0  0  0  0  0  0  0
   -1.5000   -7.7942    0.0000 N   0  0  0  0  0  0  0  0  0  0  0  0
   -3.0000   -7.7942    0.0000 C   0  0  0  0  0  0  0  0  0  0  0  0
   -0.7500   -6.4952    0.0000 C   0  0  0  0  0  0  0  0  0  0  0  0
    0.7500   -6.4952    0.0000 C   0  0  0  0  0  0  0  0  0  0  0  0
    1.5000   -5.1962    0.0000 C   0  0  0  0  0  0  0  0  0  0  0  0
    3.0000   -5.1962    0.0000 C   0  0  0  0  0  0  0  0  0  0  0  0
    0.7500   -3.8971    0.0000 C   0  0  0  0  0  0  0  0  0  0  0  0
   -1.5000   -5.1962    0.0000 C   0  0  0  0  0  0  0  0  0  0  0  0
   -0.7500   -3.8971    0.0000 O   0  0  0  0  0  0  0  0  0  0  0  0
   -3.0000   -5.1962    0.0000 N   0  0  0  0  0  0  0  0  0  0  0  0
   -3.7500   -3.8971    0.0000 C   0  0  0  0  0  0  0  0  0  0  0  0
   -5.2500   -3.8971    0.0000 C   0  0  0  0  0  0  0  0  0  0  0  0
   -6.0000   -5.1962    0.0000 C   0  0  0  0  0  0  0  0  0  0  0  0
   -7.5000   -5.1962    0.0000 C   0  0  0  0  0  0  0  0  0  0  0  0
   -5.2500   -6.4952    0.0000 C   0  0  0  0  0  0  0  0  0  0  0  0
   -3.0000   -2.5981    0.0000 C   0  0  0  0  0  0  0  0  0  0  0  0
   -1.5000   -2.5981    0.0000 O   0  0  0  0  0  0  0  0  0  0  0  0
   -3.7500   -1.2990    0.0000 N   0  0  0  0  0  0  0  0  0  0  0  0
   -5.2418   -1.1422    0.0000 C   0  0  0  0  0  0  0  0  0  0  0  0
   -5.5537    0.3250    0.0000 C   0  0  0  0  0  0  0  0  0  0  0  0
   -4.2546    1.0750    0.0000 C   0  0  0  0  0  0  0  0  0  0  0  0
   -3.1399    0.0713    0.0000 C   0  0  0  0  0  0  0  0  0  0  0  0
   -1.6727    0.3831    0.0000 C   0  0  0  0  0  0  0  0  0  0  0  0
   -0.6690   -0.7316    0.0000 O   0  0  0  0  0  0  0  0  0  0  0  0
   -1.2091    1.8097    0.0000 N   0  0  0  0  0  0  0  0  0  0  0  0
    0.2581    2.1216    0.0000 C   0  0  0  0  0  0  0  0  0  0  0  0
    0.7216    3.5482    0.0000 C   0  0  0  0  0  0  0  0  0  0  0  0
    2.1888    3.8601    0.0000 C   0  0  0  0  0  0  0  0  0  0  0  0
    3.6560    4.1719    0.0000 C   0  0  0  0  0  0  0  0  0  0  0  0
    1.2618    1.0069    0.0000 C   0  0  0  0  0  0  0  0  0  0  0  0
    0.7982   -0.4197    0.0000 O   0  0  0  0  0  0  0  0  0  0  0  0
    2.7290    1.3188    0.0000 O   0  0  0  0  0  0  0  0  0  0  0  0
  2  1  1  1
  2  3  1  0
  3  4  1  0
  4  5  2  0
  5  6  1  0
  6  7  2  0
  7  8  1  0
  8  9  2  0
  2 10  1  0
 10 11  2  0
 10 12  1  0
 12 13  1  0
 12 14  1  0
 14 15  1  1
 15 16  1  0
 16 17  1  0
 16 18  1  0
 14 19  1  0
 19 20  2  0
 19 21  1  0
 21 22  1  0
 22 23  1  6
 23 24  1  0
 24 25  1  0
 24 26  1  0
 22 27  1  0
 27 28  2  0
 27 29  1  0
 29 30  1  0
 30 31  1  0
 31 32  1  0
 32 33  1  0
 33 34  1  1
 34 35  2  0
 34 36  1  0
 36 37  1  0
 37 38  1  1
 38 39  1  0
 39 40  3  0
 37 41  1  0
 41 42  2  0
 41 43  1  0
  9  4  1  0
 33 29  1  0
M  END
$$$$

     RDKit          2D

 43 44  0  0  0  0  0  0  0  0999 V2000
    1.5000   -7.7942    0.0000 N   0  0  0  0  0  0  0  0  0  0  0  0
    0.7500   -9.0933    0.0000 C   0  0  0  0  0  0  0  0  0  0  0  0
    1.5000  -10.3923    0.0000 C   0  0  0  0  0  0  0  0  0  0  0  0
    3.0000  -10.3923    0.0000 C   0  0  0  0  0  0  0  0  0  0  0  0
    3.7500  -11.6913    0.0000 C   0  0  0  0  0  0  0  0  0  0  0  0
    5.2500  -11.6913    0.0000 C   0  0  0  0  0  0  0  0  0  0  0  0
    6.0000  -10.3923    0.0000 C   0  0  0  0  0  0  0  0  0  0  0  0
    5.2500   -9.0933    0.0000 C   0  0  0  0  0  0  0  0  0  0  0  0
    3.7500   -9.0933    0.0000 C   0  0  0  0  0  0  0  0  0  0  0  0
   -0.7500   -9.0933    0.0000 C   0  0  0  0  0  0  0  0  0  0  0  0
   -1.5000  -10.3923    0.0000 O   0  0  0  0  0  0  0  0  0  0  0  0
   -1.5000   -7.7942    0.0000 N   0  0  0  0  0  0  0  0  0  0  0  0
   -3.0000   -7.7942    0.0000 C   0  0  0  0  0  0  0  0  0  0  0  0
   -0.7500   -6.4952    0.0000 C   0  0  0  0  0  0  0  0  0  0  0  0
    0.7500   -6.4952    0.0000 C   0  0  0  0  0  0  0  0  0  0  0  0
    1.5000   -5.1962    0.0000 C   0  0  0  0  0  0  0  0  0  0  0  0
    3.0000   -5.1962    0.0000 C   0  0  0  0  0  0  0  0  0  0  0  0
    0.7500   -3.8971    0.0000 C   0  0  0  0  0  0  0  0  0  0  0  0
   -1.5000   -5.1962    0.0000 C   0  0  0  0  0  0  0  0  0  0  0  0
   -0.7500   -3.8971    0.0000 O   0  0  0  0  0  0  0  0  0  0  0  0
   -3.0000   -5.1962    0.0000 N   0  0  0  0  0  0  0  0  0  0  0  0
   -3.7500   -3.8971    0.0000 C   0  0  0  0  0  0  0  0  0  0  0  0
   -5.2500   -3.8971    0.0000 C   0  0  0  0  0  0  0  0  0  0  0  0
   -6.0000   -5.1962    0.0000 C   0  0  0  0  0  0  0  0  0  0  0  0
   -7.5000   -5.1962    0.0000 C   0  0  0  0  0  0  0  0  0  0  0  0
   -5.2500   -6.4952    0.0000 C   0  0  0  0  0  0  0  0  0  0  0  0
   -3.0000   -2.5981    0.0000 C   0  0  0  0  0  0  0  0  0  0  0  0
   -1.5000   -2.5981    0.0000 O   0  0  0  0  0  0  0  0  0  0  0  0
   -3.7500   -1.2990    0.0000 N   0  0  0  0  0  0  0  0  0  0  0  0
   -5.2418   -1.1422    0.0000 C   0  0  0  0  0  0  0  0  0  0  0  0
   -5.5537    0.3250    0.0000 C   0  0  0  0  0  0  0  0  0  0  0  0
   -4.2546    1.0750    0.0000 C   0  0  0  0  0  0  0  0  0  0  0  0
   -3.1399    0.0713    0.0000 C   0  0  0  0  0  0  0  0  0  0  0  0
   -1.6727    0.3831    0.0000 C   0  0  0  0  0  0  0  0  0  0  0  0
   -0.6690   -0.7316    0.0000 O   0  0  0  0  0  0  0  0  0  0  0  0
   -1.2091    1.8097    0.0000 N   0  0  0  0  0  0  0  0  0  0  0  0
    0.2581    2.1216    0.0000 C   0  0  0  0  0  0  0  0  0  0  0  0
    0.7216    3.5482    0.0000 C   0  0  0  0  0  0  0  0  0  0  0  0
    2.1888    3.8601    0.0000 C   0  0  0  0  0  0  0  0  0  0  0  0
    3.6560    4.1719    0.0000 C   0  0  0  0  0  0  0  0  0  0  0  0
    1.2618    1.0069    0.0000 C   0  0  0  0  0  0  0  0  0  0  0  0
    0.7982   -0.4197    0.0000 O   0  0  0  0  0  0  0  0  0  0  0  0
    2.7290    1.3188    0.0000 O   0  0  0  0  0  0  0  0  0  0  0  0
  2  1  1  6
  2  3  1  0
  3  4  1  0
  4  5  2  0
  5  6  1  0
  6  7  2  0
  7  8  1  0
  8  9  2  0
  2 10  1  0
 10 11  2  0
 10 12  1  0
 12 13  1  0
 12 14  1  0
 14 15  1  1
 15 16  1  0
 16 17  1  0
 16 18  1  0
 14 19  1  0
 19 20  2  0
 19 21  1  0
 21 22  1  0
 22 23  1  6
 23 24  1  0
 24 25  1  0
 24 26  1  0
 22 27  1  0
 27 28  2  0
 27 29  1  0
 29 30  1  0
 30 31  1  0
 31 32  1  0
 32 33  1  0
 33 34  1  1
 34 35  2  0
 34 36  1  0
 36 37  1  0
 37 38  1  1
 38 39  1  0
 39 40  3  0
 37 41  1  0
 41 42  2  0
 41 43  1  0
  9  4  1  0
 33 29  1  0
M  END
$$$$

     RDKit          2D

 44 45  0  0  0  0  0  0  0  0999 V2000
    3.7500   -6.4952    0.0000 N   0  0  0  0  0  0  0  0  0  0  0  0
    3.0000   -5.1962    0.0000 C   0  0  0  0  0  0  0  0  0  0  0  0
    3.0000   -7.7942    0.0000 C   0  0  0  0  0  0  0  0  0  0  0  0
    3.7500   -9.0933    0.0000 C   0  0  0  0  0  0  0  0  0  0  0  0
    5.2500   -9.0933    0.0000 C   0  0  0  0  0  0  0  0  0  0  0  0
    6.0000  -10.3923    0.0000 C   0  0  0  0  0  0  0  0  0  0  0  0
    7.5000  -10.3923    0.0000 C   0  0  0  0  0  0  0  0  0  0  0  0
    8.2500   -9.0933    0.0000 C   0  0  0  0  0  0  0  0  0  0  0  0
    7.5000   -7.7942    0.0000 C   0  0  0  0  0  0  0  0  0  0  0  0
    6.0000   -7.7942    0.0000 C   0  0  0  0  0  0  0  0  0  0  0  0
    1.5000   -7.7942    0.0000 C   0  0  0  0  0  0  0  0  0  0  0  0
    0.7500   -9.0933    0.0000 O   0  0  0  0  0  0  0  0  0  0  0  0
    0.7500   -6.4952    0.0000 N   0  0  0  0  0  0  0  0  0  0  0  0
    1.5000   -5.1962    0.0000 C   0  0  0  0  0  0  0  0  0  0  0  0
   -0.7500   -6.4952    0.0000 C   0  0  0  0  0  0  0  0  0  0  0  0
   -1.5000   -7.7942    0.0000 C   0  0  0  0  0  0  0  0  0  0  0  0
   -3.0000   -7.7942    0.0000 C   0  0  0  0  0  0  0  0  0  0  0  0
   -3.7500   -9.0933    0.0000 C   0  0  0  0  0  0  0  0  0  0  0  0
   -3.7500   -6.4952    0.0000 C   0  0  0  0  0  0  0  0  0  0  0  0
   -1.5000   -5.1962    0.0000 C   0  0  0  0  0  0  0  0  0  0  0  0
   -0.7500   -3.8971    0.0000 O   0  0  0  0  0  0  0  0  0  0  0  0
   -3.0000   -5.1962    0.0000 N   0  0  0  0  0  0  0  0  0  0  0  0
   -3.7500   -3.8971    0.0000 C   0  0  0  0  0  0  0  0  0  0  0  0
   -5.2500   -3.8971    0.0000 C   0  0  0  0  0  0  0  0  0  0  0  0
   -6.0000   -5.1962    0.0000 C   0  0  0  0  0  0  0  0  0  0  0  0
   -7.5000   -5.1962    0.0000 C   0  0  0  0  0  0  0  0  0  0  0  0
   -5.2500   -6.4952    0.0000 C   0  0  0  0  0  0  0  0  0  0  0  0
   -3.0000   -2.5981    0.0000 C   0  0  0  0  0  0  0  0  0  0  0  0
   -1.5000   -2.5981    0.0000 O   0  0  0  0  0  0  0  0  0  0  0  0
   -3.7500   -1.2990    0.0000 N   0  0  0  0  0  0  0  0  0  0  0  0
   -5.2418   -1.1422    0.0000 C   0  0  0  0  0  0  0  0  0  0  0  0
   -5.5537    0.3250    0.0000 C   0  0  0  0  0  0  0  0  0  0  0  0
   -4.2546    1.0750    0.0000 C   0  0  0  0  0  0  0  0  0  0  0  0
   -3.1399    0.0713    0.0000 C   0  0  0  0  0  0  0  0  0  0  0  0
   -1.6727    0.3831    0.0000 C   0  0  0  0  0  0  0  0  0  0  0  0
   -0.6690   -0.7316    0.0000 O   0  0  0  0  0  0  0  0  0  0  0  0
   -1.2091    1.8097    0.0000 N   0  0  0  0  0  0  0  0  0  0  0  0
    0.2581    2.1216    0.0000 C   0  0  0  0  0  0  0  0  0  0  0  0
    0.7216    3.5482    0.0000 C   0  0  0  0  0  0  0  0  0  0  0  0
    2.1888    3.8601    0.0000 C   0  0  0  0  0  0  0  0  0  0  0  0
    3.6560    4.1719    0.0000 C   0  0  0  0  0  0  0  0  0  0  0  0
    1.2618    1.0069    0.0000 C   0  0  0  0  0  0  0  0  0  0  0  0
    0.7982   -0.4197    0.0000 O   0  0  0  0  0  0  0  0  0  0  0  0
    2.7290    1.3188    0.0000 O   0  0  0  0  0  0  0  0  0  0  0  0
  1  2  1  0
  1  3  1  0
  3  4  1  1
  4  5  1  0
  5  6  2  0
  6  7  1  0
  7  8  2  0
  8  9  1  0
  9 10  2  0
  3 11  1  0
 11 12  2  0
 11 13  1  0
 13 14  1  0
 13 15  1  0
 15 16  1  6
 16 17  1  0
 17 18  1  0
 17 19  1  0
 15 20  1  0
 20 21  2  0
 20 22  1  0
 22 23  1  0
 23 24  1  6
 24 25  1  0
 25 26  1  0
 25 27  1  0
 23 28  1  0
 28 29  2  0
 28 30  1  0
 30 31  1  0
 31 32  1  0
 32 33  1  0
 33 34  1  0
 34 35  1  1
 35 36  2  0
 35 37  1  0
 37 38  1  0
 38 39  1  1
 39 40  1  0
 40 41  3  0
 38 42  1  0
 42 43  2  0
 42 44  1  0
 10  5  1  0
 34 30  1  0
M  END
$$$$

     RDKit          2D

 44 45  0  0  0  0  0  0  0  0999 V2000
    3.7500   -6.4952    0.0000 N   0  0  0  0  0  0  0  0  0  0  0  0
    3.0000   -5.1962    0.0000 C   0  0  0  0  0  0  0  0  0  0  0  0
    3.0000   -7.7942    0.0000 C   0  0  0  0  0  0  0  0  0  0  0  0
    3.7500   -9.0933    0.0000 C   0  0  0  0  0  0  0  0  0  0  0  0
    5.2500   -9.0933    0.0000 C   0  0  0  0  0  0  0  0  0  0  0  0
    6.0000  -10.3923    0.0000 C   0  0  0  0  0  0  0  0  0  0  0  0
    7.5000  -10.3923    0.0000 C   0  0  0  0  0  0  0  0  0  0  0  0
    8.2500   -9.0933    0.0000 C   0  0  0  0  0  0  0  0  0  0  0  0
    7.5000   -7.7942    0.0000 C   0  0  0  0  0  0  0  0  0  0  0  0
    6.0000   -7.7942    0.0000 C   0  0  0  0  0  0  0  0  0  0  0  0
    1.5000   -7.7942    0.0000 C   0  0  0  0  0  0  0  0  0  0  0  0
    0.7500   -9.0933    0.0000 O   0  0  0  0  0  0  0  0  0  0  0  0
    0.7500   -6.4952    0.0000 N   0  0  0  0  0  0  0  0  0  0  0  0
    1.5000   -5.1962    0.0000 C   0  0  0  0  0  0  0  0  0  0  0  0
   -0.7500   -6.4952    0.0000 C   0  0  0  0  0  0  0  0  0  0  0  0
   -1.5000   -7.7942    0.0000 C   0  0  0  0  0  0  0  0  0  0  0  0
   -3.0000   -7.7942    0.0000 C   0  0  0  0  0  0  0  0  0  0  0  0
   -3.7500   -9.0933    0.0000 C   0  0  0  0  0  0  0  0  0  0  0  0
   -3.7500   -6.4952    0.0000 C   0  0  0  0  0  0  0  0  0  0  0  0
   -1.5000   -5.1962    0.0000 C   0  0  0  0  0  0  0  0  0  0  0  0
   -0.7500   -3.8971    0.0000 O   0  0  0  0  0  0  0  0  0  0  0  0
   -3.0000   -5.1962    0.0000 N   0  0  0  0  0  0  0  0  0  0  0  0
   -3.7500   -3.8971    0.0000 C   0  0  0  0  0  0  0  0  0  0  0  0
   -5.2500   -3.8971    0.0000 C   0  0  0  0  0  0  0  0  0  0  0  0
   -6.0000   -5.1962    0.0000 C   0  0  0  0  0  0  0  0  0  0  0  0
   -7.5000   -5.1962    0.0000 C   0  0  0  0  0  0  0  0  0  0  0  0
   -5.2500   -6.4952    0.0000 C   0  0  0  0  0  0  0  0  0  0  0  0
   -3.0000   -2.5981    0.0000 C   0  0  0  0  0  0  0  0  0  0  0  0
   -1.5000   -2.5981    0.0000 O   0  0  0  0  0  0  0  0  0  0  0  0
   -3.7500   -1.2990    0.0000 N   0  0  0  0  0  0  0  0  0  0  0  0
   -5.2418   -1.1422    0.0000 C   0  0  0  0  0  0  0  0  0  0  0  0
   -5.5537    0.3250    0.0000 C   0  0  0  0  0  0  0  0  0  0  0  0
   -4.2546    1.0750    0.0000 C   0  0  0  0  0  0  0  0  0  0  0  0
   -3.1399    0.0713    0.0000 C   0  0  0  0  0  0  0  0  0  0  0  0
   -1.6727    0.3831    0.0000 C   0  0  0  0  0  0  0  0  0  0  0  0
   -0.6690   -0.7316    0.0000 O   0  0  0  0  0  0  0  0  0  0  0  0
   -1.2091    1.8097    0.0000 N   0  0  0  0  0  0  0  0  0  0  0  0
    0.2581    2.1216    0.0000 C   0  0  0  0  0  0  0  0  0  0  0  0
    0.7216    3.5482    0.0000 C   0  0  0  0  0  0  0  0  0  0  0  0
    2.1888    3.8601    0.0000 C   0  0  0  0  0  0  0  0  0  0  0  0
    3.6560    4.1719    0.0000 C   0  0  0  0  0  0  0  0  0  0  0  0
    1.2618    1.0069    0.0000 C   0  0  0  0  0  0  0  0  0  0  0  0
    0.7982   -0.4197    0.0000 O   0  0  0  0  0  0  0  0  0  0  0  0
    2.7290    1.3188    0.0000 O   0  0  0  0  0  0  0  0  0  0  0  0
  1  2  1  0
  1  3  1  0
  3  4  1  6
  4  5  1  0
  5  6  2  0
  6  7  1  0
  7  8  2  0
  8  9  1  0
  9 10  2  0
  3 11  1  0
 11 12  2  0
 11 13  1  0
 13 14  1  0
 13 15  1  0
 15 16  1  6
 16 17  1  0
 17 18  1  0
 17 19  1  0
 15 20  1  0
 20 21  2  0
 20 22  1  0
 22 23  1  0
 23 24  1  6
 24 25  1  0
 25 26  1  0
 25 27  1  0
 23 28  1  0
 28 29  2  0
 28 30  1  0
 30 31  1  0
 31 32  1  0
 32 33  1  0
 33 34  1  0
 34 35  1  1
 35 36  2  0
 35 37  1  0
 37 38  1  0
 38 39  1  1
 39 40  1  0
 40 41  3  0
 38 42  1  0
 42 43  2  0
 42 44  1  0
 10  5  1  0
 34 30  1  0
M  END
$$$$

     RDKit          2D

 39 39  0  0  0  0  0  0  0  0999 V2000
    5.0260    9.0933    0.0000 N   0  0  0  0  0  0  0  0  0  0  0  0
    5.7760    7.7942    0.0000 C   0  0  0  0  0  0  0  0  0  0  0  0
    7.2760    7.7942    0.0000 C   0  0  0  0  0  0  0  0  0  0  0  0
    8.0260    6.4952    0.0000 O   0  0  0  0  0  0  0  0  0  0  0  0
    8.0260    9.0933    0.0000 C   0  0  0  0  0  0  0  0  0  0  0  0
    5.0260    6.4952    0.0000 C   0  0  0  0  0  0  0  0  0  0  0  0
    5.7760    5.1962    0.0000 O   0  0  0  0  0  0  0  0  0  0  0  0
    3.5260    6.4952    0.0000 N   0  0  0  0  0  0  0  0  0  0  0  0
    2.7760    7.7942    0.0000 C   0  0  0  0  0  0  0  0  0  0  0  0
    2.7760    5.1962    0.0000 C   0  0  0  0  0  0  0  0  0  0  0  0
    1.2760    5.1962    0.0000 C   0  0  0  0  0  0  0  0  0  0  0  0
    0.5260    6.4952    0.0000 C   0  0  0  0  0  0  0  0  0  0  0  0
   -0.9740    6.4952    0.0000 C   0  0  0  0  0  0  0  0  0  0  0  0
    1.2760    7.7942    0.0000 C   0  0  0  0  0  0  0  0  0  0  0  0
    3.5260    3.8971    0.0000 C   0  0  0  0  0  0  0  0  0  0  0  0
    5.0260    3.8971    0.0000 O   0  0  0  0  0  0  0  0  0  0  0  0
    2.7760    2.5981    0.0000 N   0  0  0  0  0  0  0  0  0  0  0  0
    3.5260    1.2990    0.0000 C   0  0  0  0  0  0  0  0  0  0  0  0
    5.0260    1.2990    0.0000 C   0  0  0  0  0  0  0  0  0  0  0  0
    5.7760    0.0000    0.0000 C   0  0  0  0  0  0  0  0  0  0  0  0
    7.2760    0.0000    0.0000 C   0  0  0  0  0  0  0  0  0  0  0  0
    5.0260   -1.2990    0.0000 C   0  0  0  0  0  0  0  0  0  0  0  0
    2.7760   -0.0000    0.0000 C   0  0  0  0  0  0  0  0  0  0  0  0
    3.5260   -1.2990    0.0000 O   0  0  0  0  0  0  0  0  0  0  0  0
    1.2760   -0.0000    0.0000 N   0  0  0  0  0  0  0  0  0  0  0  0
    0.3943    1.2135    0.0000 C   0  0  0  0  0  0  0  0  0  0  0  0
   -1.0323    0.7500    0.0000 C   0  0  0  0  0  0  0  0  0  0  0  0
   -1.0323   -0.7500    0.0000 C   0  0  0  0  0  0  0  0  0  0  0  0
    0.3943   -1.2135    0.0000 C   0  0  0  0  0  0  0  0  0  0  0  0
    0.8578   -2.6401    0.0000 C   0  0  0  0  0  0  0  0  0  0  0  0
    2.3250   -2.9520    0.0000 O   0  0  0  0  0  0  0  0  0  0  0  0
   -0.1459   -3.7548    0.0000 N   0  0  0  0  0  0  0  0  0  0  0  0
    0.3177   -5.1814    0.0000 C   0  0  0  0  0  0  0  0  0  0  0  0
   -0.6860   -6.2961    0.0000 C   0  0  0  0  0  0  0  0  0  0  0  0
   -0.2225   -7.7227    0.0000 C   0  0  0  0  0  0  0  0  0  0  0  0
    0.2410   -9.1493    0.0000 C   0  0  0  0  0  0  0  0  0  0  0  0
    1.7849   -5.4933    0.0000 C   0  0  0  0  0  0  0  0  0  0  0  0
    2.7886   -4.3786    0.0000 O   0  0  0  0  0  0  0  0  0  0  0  0
    2.2484   -6.9199    0.0000 O   0  0  0  0  0  0  0  0  0  0  0  0
  2  1  1  1
  2  3  1  0
  3  4  1  0
  3  5  1  1
  2  6  1  0
  6  7  2  0
  6  8  1  0
  8  9  1  0
  8 10  1  0
 10 11  1  1
 11 12  1  0
 12 13  1  0
 12 14  1  0
 10 15  1  0
 15 16  2  0
 15 17  1  0
 17 18  1  0
 18 19  1  6
 19 20  1  0
 20 21  1  0
 20 22  1  0
 18 23  1  0
 23 24  2  0
 23 25  1  0
 25 26  1  0
 26 27  1  0
 27 28  1  0
 28 29  1  0
 29 30  1  6
 30 31  2  0
 30 32  1  0
 32 33  1  0
 33 34  1  6
 34 35  1  0
 35 36  3  0
 33 37  1  0
 37 38  2  0
 37 39  1  0
 29 25  1  0
M  END
$$$$

     RDKit          2D

 39 39  0  0  0  0  0  0  0  0999 V2000
    5.0260    9.0933    0.0000 N   0  0  0  0  0  0  0  0  0  0  0  0
    5.7760    7.7942    0.0000 C   0  0  0  0  0  0  0  0  0  0  0  0
    7.2760    7.7942    0.0000 C   0  0  0  0  0  0  0  0  0  0  0  0
    8.0260    6.4952    0.0000 O   0  0  0  0  0  0  0  0  0  0  0  0
    8.0260    9.0933    0.0000 C   0  0  0  0  0  0  0  0  0  0  0  0
    5.0260    6.4952    0.0000 C   0  0  0  0  0  0  0  0  0  0  0  0
    5.7760    5.1962    0.0000 O   0  0  0  0  0  0  0  0  0  0  0  0
    3.5260    6.4952    0.0000 N   0  0  0  0  0  0  0  0  0  0  0  0
    2.7760    7.7942    0.0000 C   0  0  0  0  0  0  0  0  0  0  0  0
    2.7760    5.1962    0.0000 C   0  0  0  0  0  0  0  0  0  0  0  0
    1.2760    5.1962    0.0000 C   0  0  0  0  0  0  0  0  0  0  0  0
    0.5260    6.4952    0.0000 C   0  0  0  0  0  0  0  0  0  0  0  0
   -0.9740    6.4952    0.0000 C   0  0  0  0  0  0  0  0  0  0  0  0
    1.2760    7.7942    0.0000 C   0  0  0  0  0  0  0  0  0  0  0  0
    3.5260    3.8971    0.0000 C   0  0  0  0  0  0  0  0  0  0  0  0
    5.0260    3.8971    0.0000 O   0  0  0  0  0  0  0  0  0  0  0  0
    2.7760    2.5981    0.0000 N   0  0  0  0  0  0  0  0  0  0  0  0
    3.5260    1.2990    0.0000 C   0  0  0  0  0  0  0  0  0  0  0  0
    5.0260    1.2990    0.0000 C   0  0  0  0  0  0  0  0  0  0  0  0
    5.7760    0.0000    0.0000 C   0  0  0  0  0  0  0  0  0  0  0  0
    7.2760    0.0000    0.0000 C   0  0  0  0  0  0  0  0  0  0  0  0
    5.0260   -1.2990    0.0000 C   0  0  0  0  0  0  0  0  0  0  0  0
    2.7760   -0.0000    0.0000 C   0  0  0  0  0  0  0  0  0  0  0  0
    3.5260   -1.2990    0.0000 O   0  0  0  0  0  0  0  0  0  0  0  0
    1.2760   -0.0000    0.0000 N   0  0  0  0  0  0  0  0  0  0  0  0
    0.3943    1.2135    0.0000 C   0  0  0  0  0  0  0  0  0  0  0  0
   -1.0323    0.7500    0.0000 C   0  0  0  0  0  0  0  0  0  0  0  0
   -1.0323   -0.7500    0.0000 C   0  0  0  0  0  0  0  0  0  0  0  0
    0.3943   -1.2135    0.0000 C   0  0  0  0  0  0  0  0  0  0  0  0
    0.8578   -2.6401    0.0000 C   0  0  0  0  0  0  0  0  0  0  0  0
    2.3250   -2.9520    0.0000 O   0  0  0  0  0  0  0  0  0  0  0  0
   -0.1459   -3.7548    0.0000 N   0  0  0  0  0  0  0  0  0  0  0  0
    0.3177   -5.1814    0.0000 C   0  0  0  0  0  0  0  0  0  0  0  0
   -0.6860   -6.2961    0.0000 C   0  0  0  0  0  0  0  0  0  0  0  0
   -0.2225   -7.7227    0.0000 C   0  0  0  0  0  0  0  0  0  0  0  0
    0.2410   -9.1493    0.0000 C   0  0  0  0  0  0  0  0  0  0  0  0
    1.7849   -5.4933    0.0000 C   0  0  0  0  0  0  0  0  0  0  0  0
    2.7886   -4.3786    0.0000 O   0  0  0  0  0  0  0  0  0  0  0  0
    2.2484   -6.9199    0.0000 O   0  0  0  0  0  0  0  0  0  0  0  0
  2  1  1  6
  2  3  1  0
  3  4  1  0
  3  5  1  1
  2  6  1  0
  6  7  2  0
  6  8  1  0
  8  9  1  0
  8 10  1  0
 10 11  1  1
 11 12  1  0
 12 13  1  0
 12 14  1  0
 10 15  1  0
 15 16  2  0
 15 17  1  0
 17 18  1  0
 18 19  1  6
 19 20  1  0
 20 21  1  0
 20 22  1  0
 18 23  1  0
 23 24  2  0
 23 25  1  0
 25 26  1  0
 26 27  1  0
 27 28  1  0
 28 29  1  0
 29 30  1  6
 30 31  2  0
 30 32  1  0
 32 33  1  0
 33 34  1  6
 34 35  1  0
 35 36  3  0
 33 37  1  0
 37 38  2  0
 37 39  1  0
 29 25  1  0
M  END
$$$$

     RDKit          2D

 40 40  0  0  0  0  0  0  0  0999 V2000
    5.0260    9.0933    0.0000 N   0  0  0  0  0  0  0  0  0  0  0  0
    5.7760   10.3923    0.0000 C   0  0  0  0  0  0  0  0  0  0  0  0
    5.7760    7.7942    0.0000 C   0  0  0  0  0  0  0  0  0  0  0  0
    7.2760    7.7942    0.0000 C   0  0  0  0  0  0  0  0  0  0  0  0
    8.0260    6.4952    0.0000 O   0  0  0  0  0  0  0  0  0  0  0  0
    8.0260    9.0933    0.0000 C   0  0  0  0  0  0  0  0  0  0  0  0
    5.0260    6.4952    0.0000 C   0  0  0  0  0  0  0  0  0  0  0  0
    5.7760    5.1962    0.0000 O   0  0  0  0  0  0  0  0  0  0  0  0
    3.5260    6.4952    0.0000 N   0  0  0  0  0  0  0  0  0  0  0  0
    2.7760    7.7942    0.0000 C   0  0  0  0  0  0  0  0  0  0  0  0
    2.7760    5.1962    0.0000 C   0  0  0  0  0  0  0  0  0  0  0  0
    1.2760    5.1962    0.0000 C   0  0  0  0  0  0  0  0  0  0  0  0
    0.5260    6.4952    0.0000 C   0  0  0  0  0  0  0  0  0  0  0  0
   -0.9740    6.4952    0.0000 C   0  0  0  0  0  0  0  0  0  0  0  0
    1.2760    7.7942    0.0000 C   0  0  0  0  0  0  0  0  0  0  0  0
    3.5260    3.8971    0.0000 C   0  0  0  0  0  0  0  0  0  0  0  0
    5.0260    3.8971    0.0000 O   0  0  0  0  0  0  0  0  0  0  0  0
    2.7760    2.5981    0.0000 N   0  0  0  0  0  0  0  0  0  0  0  0
    3.5260    1.2990    0.0000 C   0  0  0  0  0  0  0  0  0  0  0  0
    5.0260    1.2990    0.0000 C   0  0  0  0  0  0  0  0  0  0  0  0
    5.7760    0.0000    0.0000 C   0  0  0  0  0  0  0  0  0  0  0  0
    5.0260   -1.2990    0.0000 C   0  0  0  0  0  0  0  0  0  0  0  0
    7.2760    0.0000    0.0000 C   0  0  0  0  0  0  0  0  0  0  0  0
    2.7760   -0.0000    0.0000 C   0  0  0  0  0  0  0  0  0  0  0  0
    3.5260   -1.2990    0.0000 O   0  0  0  0  0  0  0  0  0  0  0  0
    1.2760   -0.0000    0.0000 N   0  0  0  0  0  0  0  0  0  0  0  0
    0.3943    1.2135    0.0000 C   0  0  0  0  0  0  0  0  0  0  0  0
   -1.0323    0.7500    0.0000 C   0  0  0  0  0  0  0  0  0  0  0  0
   -1.0323   -0.7500    0.0000 C   0  0  0  0  0  0  0  0  0  0  0  0
    0.3943   -1.2135    0.0000 C   0  0  0  0  0  0  0  0  0  0  0  0
    0.8578   -2.6401    0.0000 C   0  0  0  0  0  0  0  0  0  0  0  0
    2.3250   -2.9520    0.0000 O   0  0  0  0  0  0  0  0  0  0  0  0
   -0.1459   -3.7548    0.0000 N   0  0  0  0  0  0  0  0  0  0  0  0
    0.3177   -5.1814    0.0000 C   0  0  0  0  0  0  0  0  0  0  0  0
   -0.6860   -6.2961    0.0000 C   0  0  0  0  0  0  0  0  0  0  0  0
   -0.2225   -7.7227    0.0000 C   0  0  0  0  0  0  0  0  0  0  0  0
    0.2410   -9.1493    0.0000 C   0  0  0  0  0  0  0  0  0  0  0  0
    1.7849   -5.4933    0.0000 C   0  0  0  0  0  0  0  0  0  0  0  0
    2.7886   -4.3786    0.0000 O   0  0  0  0  0  0  0  0  0  0  0  0
    2.2484   -6.9199    0.0000 O   0  0  0  0  0  0  0  0  0  0  0  0
  1  2  1  0
  3  1  1  1
  3  4  1  0
  4  5  1  0
  4  6  1  1
  3  7  1  0
  7  8  2  0
  7  9  1  0
  9 10  1  0
  9 11  1  0
 11 12  1  1
 12 13  1  0
 13 14  1  0
 13 15  1  0
 11 16  1  0
 16 17  2  0
 16 18  1  0
 18 19  1  0
 19 20  1  6
 20 21  1  0
 21 22  1  0
 21 23  1  0
 19 24  1  0
 24 25  2  0
 24 26  1  0
 26 27  1  0
 27 28  1  0
 28 29  1  0
 29 30  1  0
 30 31  1  6
 31 32  2  0
 31 33  1  0
 33 34  1  0
 34 35  1  6
 35 36  1  0
 36 37  3  0
 34 38  1  0
 38 39  2  0
 38 40  1  0
 30 26  1  0
M  END
$$$$

     RDKit          2D

 40 40  0  0  0  0  0  0  0  0999 V2000
    5.0260    9.0933    0.0000 N   0  0  0  0  0  0  0  0  0  0  0  0
    5.7760   10.3923    0.0000 C   0  0  0  0  0  0  0  0  0  0  0  0
    5.7760    7.7942    0.0000 C   0  0  0  0  0  0  0  0  0  0  0  0
    7.2760    7.7942    0.0000 C   0  0  0  0  0  0  0  0  0  0  0  0
    8.0260    6.4952    0.0000 O   0  0  0  0  0  0  0  0  0  0  0  0
    8.0260    9.0933    0.0000 C   0  0  0  0  0  0  0  0  0  0  0  0
    5.0260    6.4952    0.0000 C   0  0  0  0  0  0  0  0  0  0  0  0
    5.7760    5.1962    0.0000 O   0  0  0  0  0  0  0  0  0  0  0  0
    3.5260    6.4952    0.0000 N   0  0  0  0  0  0  0  0  0  0  0  0
    2.7760    7.7942    0.0000 C   0  0  0  0  0  0  0  0  0  0  0  0
    2.7760    5.1962    0.0000 C   0  0  0  0  0  0  0  0  0  0  0  0
    1.2760    5.1962    0.0000 C   0  0  0  0  0  0  0  0  0  0  0  0
    0.5260    6.4952    0.0000 C   0  0  0  0  0  0  0  0  0  0  0  0
   -0.9740    6.4952    0.0000 C   0  0  0  0  0  0  0  0  0  0  0  0
    1.2760    7.7942    0.0000 C   0  0  0  0  0  0  0  0  0  0  0  0
    3.5260    3.8971    0.0000 C   0  0  0  0  0  0  0  0  0  0  0  0
    5.0260    3.8971    0.0000 O   0  0  0  0  0  0  0  0  0  0  0  0
    2.7760    2.5981    0.0000 N   0  0  0  0  0  0  0  0  0  0  0  0
    3.5260    1.2990    0.0000 C   0  0  0  0  0  0  0  0  0  0  0  0
    5.0260    1.2990    0.0000 C   0  0  0  0  0  0  0  0  0  0  0  0
    5.7760    0.0000    0.0000 C   0  0  0  0  0  0  0  0  0  0  0  0
    5.0260   -1.2990    0.0000 C   0  0  0  0  0  0  0  0  0  0  0  0
    7.2760    0.0000    0.0000 C   0  0  0  0  0  0  0  0  0  0  0  0
    2.7760   -0.0000    0.0000 C   0  0  0  0  0  0  0  0  0  0  0  0
    3.5260   -1.2990    0.0000 O   0  0  0  0  0  0  0  0  0  0  0  0
    1.2760   -0.0000    0.0000 N   0  0  0  0  0  0  0  0  0  0  0  0
    0.3943    1.2135    0.0000 C   0  0  0  0  0  0  0  0  0  0  0  0
   -1.0323    0.7500    0.0000 C   0  0  0  0  0  0  0  0  0  0  0  0
   -1.0323   -0.7500    0.0000 C   0  0  0  0  0  0  0  0  0  0  0  0
    0.3943   -1.2135    0.0000 C   0  0  0  0  0  0  0  0  0  0  0  0
    0.8578   -2.6401    0.0000 C   0  0  0  0  0  0  0  0  0  0  0  0
    2.3250   -2.9520    0.0000 O   0  0  0  0  0  0  0  0  0  0  0  0
   -0.1459   -3.7548    0.0000 N   0  0  0  0  0  0  0  0  0  0  0  0
    0.3177   -5.1814    0.0000 C   0  0  0  0  0  0  0  0  0  0  0  0
   -0.6860   -6.2961    0.0000 C   0  0  0  0  0  0  0  0  0  0  0  0
   -0.2225   -7.7227    0.0000 C   0  0  0  0  0  0  0  0  0  0  0  0
    0.2410   -9.1493    0.0000 C   0  0  0  0  0  0  0  0  0  0  0  0
    1.7849   -5.4933    0.0000 C   0  0  0  0  0  0  0  0  0  0  0  0
    2.7886   -4.3786    0.0000 O   0  0  0  0  0  0  0  0  0  0  0  0
    2.2484   -6.9199    0.0000 O   0  0  0  0  0  0  0  0  0  0  0  0
  1  2  1  0
  3  1  1  6
  3  4  1  0
  4  5  1  0
  4  6  1  1
  3  7  1  0
  7  8  2  0
  7  9  1  0
  9 10  1  0
  9 11  1  0
 11 12  1  1
 12 13  1  0
 13 14  1  0
 13 15  1  0
 11 16  1  0
 16 17  2  0
 16 18  1  0
 18 19  1  0
 19 20  1  6
 20 21  1  0
 21 22  1  0
 21 23  1  0
 19 24  1  0
 24 25  2  0
 24 26  1  0
 26 27  1  0
 27 28  1  0
 28 29  1  0
 29 30  1  0
 30 31  1  6
 31 32  2  0
 31 33  1  0
 33 34  1  0
 34 35  1  6
 35 36  1  0
 36 37  3  0
 34 38  1  0
 38 39  2  0
 38 40  1  0
 30 26  1  0
M  END
$$$$

     RDKit          2D

 40 40  0  0  0  0  0  0  0  0999 V2000
   -1.7240    2.5981    0.0000 N   0  0  0  0  0  0  0  0  0  0  0  0
   -3.2240    2.5981    0.0000 C   0  0  0  0  0  0  0  0  0  0  0  0
   -3.9740    1.2990    0.0000 C   0  0  0  0  0  0  0  0  0  0  0  0
   -5.4740    1.2990    0.0000 C   0  0  0  0  0  0  0  0  0  0  0  0
   -3.2240   -0.0000    0.0000 C   0  0  0  0  0  0  0  0  0  0  0  0
   -0.9740    3.8971    0.0000 C   0  0  0  0  0  0  0  0  0  0  0  0
    0.5260    3.8971    0.0000 C   0  0  0  0  0  0  0  0  0  0  0  0
    1.2760    2.5981    0.0000 O   0  0  0  0  0  0  0  0  0  0  0  0
    1.2760    5.1962    0.0000 N   0  0  0  0  0  0  0  0  0  0  0  0
    0.5260    6.4952    0.0000 C   0  0  0  0  0  0  0  0  0  0  0  0
    2.7760    5.1962    0.0000 C   0  0  0  0  0  0  0  0  0  0  0  0
    3.5260    6.4952    0.0000 C   0  0  0  0  0  0  0  0  0  0  0  0
    2.7760    7.7942    0.0000 C   0  0  0  0  0  0  0  0  0  0  0  0
    3.5260    9.0933    0.0000 C   0  0  0  0  0  0  0  0  0  0  0  0
    1.2760    7.7942    0.0000 C   0  0  0  0  0  0  0  0  0  0  0  0
    3.5260    3.8971    0.0000 C   0  0  0  0  0  0  0  0  0  0  0  0
    5.0260    3.8971    0.0000 O   0  0  0  0  0  0  0  0  0  0  0  0
    2.7760    2.5981    0.0000 N   0  0  0  0  0  0  0  0  0  0  0  0
    3.5260    1.2990    0.0000 C   0  0  0  0  0  0  0  0  0  0  0  0
    5.0260    1.2990    0.0000 C   0  0  0  0  0  0  0  0  0  0  0  0
    5.7760    0.0000    0.0000 C   0  0  0  0  0  0  0  0  0  0  0  0
    5.0260   -1.2990    0.0000 C   0  0  0  0  0  0  0  0  0  0  0  0
    7.2760    0.0000    0.0000 C   0  0  0  0  0  0  0  0  0  0  0  0
    2.7760    0.0000    0.0000 C   0  0  0  0  0  0  0  0  0  0  0  0
    3.5260   -1.2990    0.0000 O   0  0  0  0  0  0  0  0  0  0  0  0
    1.2760    0.0000    0.0000 N   0  0  0  0  0  0  0  0  0  0  0  0
    0.3943    1.2135    0.0000 C   0  0  0  0  0  0  0  0  0  0  0  0
   -1.0323    0.7500    0.0000 C   0  0  0  0  0  0  0  0  0  0  0  0
   -1.0323   -0.7500    0.0000 C   0  0  0  0  0  0  0  0  0  0  0  0
    0.3943   -1.2135    0.0000 C   0  0  0  0  0  0  0  0  0  0  0  0
    0.8578   -2.6401    0.0000 C   0  0  0  0  0  0  0  0  0  0  0  0
    2.3250   -2.9520    0.0000 O   0  0  0  0  0  0  0  0  0  0  0  0
   -0.1459   -3.7548    0.0000 N   0  0  0  0  0  0  0  0  0  0  0  0
    0.3177   -5.1814    0.0000 C   0  0  0  0  0  0  0  0  0  0  0  0
   -0.6860   -6.2961    0.0000 C   0  0  0  0  0  0  0  0  0  0  0  0
   -0.2225   -7.7227    0.0000 C   0  0  0  0  0  0  0  0  0  0  0  0
    0.2410   -9.1493    0.0000 C   0  0  0  0  0  0  0  0  0  0  0  0
    1.7849   -5.4933    0.0000 C   0  0  0  0  0  0  0  0  0  0  0  0
    2.7886   -4.3786    0.0000 O   0  0  0  0  0  0  0  0  0  0  0  0
    2.2484   -6.9199    0.0000 O   0  0  0  0  0  0  0  0  0  0  0  0
  1  2  1  0
  2  3  1  0
  3  4  1  0
  3  5  1  0
  1  6  1  0
  6  7  1  0
  7  8  2  0
  7  9  1  0
  9 10  1  0
  9 11  1  0
 11 12  1  6
 12 13  1  0
 13 14  1  0
 13 15  1  0
 11 16  1  0
 16 17  2  0
 16 18  1  0
 18 19  1  0
 19 20  1  6
 20 21  1  0
 21 22  1  0
 21 23  1  0
 19 24  1  0
 24 25  2  0
 24 26  1  0
 26 27  1  0
 27 28  1  0
 28 29  1  0
 29 30  1  0
 30 31  1  6
 31 32  2  0
 31 33  1  0
 33 34  1  0
 34 35  1  6
 35 36  1  0
 36 37  3  0
 34 38  1  0
 38 39  2  0
 38 40  1  0
 30 26  1  0
M  END
$$$$

     RDKit          2D

 43 43  0  0  0  0  0  0  0  0999 V2000
   -1.7240    2.5981    0.0000 N   0  0  0  0  0  0  0  0  0  0  0  0
   -3.2240    2.5981    0.0000 C   0  0  0  0  0  0  0  0  0  0  0  0
   -3.9740    1.2990    0.0000 C   0  0  0  0  0  0  0  0  0  0  0  0
   -5.4740    1.2990    0.0000 C   0  0  0  0  0  0  0  0  0  0  0  0
   -6.2240   -0.0000    0.0000 O   0  0  0  0  0  0  0  0  0  0  0  0
   -7.7240   -0.0000    0.0000 C   0  0  0  0  0  0  0  0  0  0  0  0
   -8.4740   -1.2990    0.0000 C   0  0  0  0  0  0  0  0  0  0  0  0
   -8.4740    1.2990    0.0000 C   0  0  0  0  0  0  0  0  0  0  0  0
   -0.9740    3.8971    0.0000 C   0  0  0  0  0  0  0  0  0  0  0  0
    0.5260    3.8971    0.0000 C   0  0  0  0  0  0  0  0  0  0  0  0
    1.2760    2.5981    0.0000 O   0  0  0  0  0  0  0  0  0  0  0  0
    1.2760    5.1962    0.0000 N   0  0  0  0  0  0  0  0  0  0  0  0
    0.5260    6.4952    0.0000 C   0  0  0  0  0  0  0  0  0  0  0  0
    2.7760    5.1962    0.0000 C   0  0  0  0  0  0  0  0  0  0  0  0
    3.5260    6.4952    0.0000 C   0  0  0  0  0  0  0  0  0  0  0  0
    2.7760    7.7942    0.0000 C   0  0  0  0  0  0  0  0  0  0  0  0
    3.5260    9.0933    0.0000 C   0  0  0  0  0  0  0  0  0  0  0  0
    1.2760    7.7942    0.0000 C   0  0  0  0  0  0  0  0  0  0  0  0
    3.5260    3.8971    0.0000 C   0  0  0  0  0  0  0  0  0  0  0  0
    5.0260    3.8971    0.0000 O   0  0  0  0  0  0  0  0  0  0  0  0
    2.7760    2.5981    0.0000 N   0  0  0  0  0  0  0  0  0  0  0  0
    3.5260    1.2990    0.0000 C   0  0  0  0  0  0  0  0  0  0  0  0
    5.0260    1.2990    0.0000 C   0  0  0  0  0  0  0  0  0  0  0  0
    5.7760    0.0000    0.0000 C   0  0  0  0  0  0  0  0  0  0  0  0
    7.2760    0.0000    0.0000 C   0  0  0  0  0  0  0  0  0  0  0  0
    5.0260   -1.2990    0.0000 C   0  0  0  0  0  0  0  0  0  0  0  0
    2.7760    0.0000    0.0000 C   0  0  0  0  0  0  0  0  0  0  0  0
    3.5260   -1.2990    0.0000 O   0  0  0  0  0  0  0  0  0  0  0  0
    1.2760    0.0000    0.0000 N   0  0  0  0  0  0  0  0  0  0  0  0
    0.3943    1.2135    0.0000 C   0  0  0  0  0  0  0  0  0  0  0  0
   -1.0323    0.7500    0.0000 C   0  0  0  0  0  0  0  0  0  0  0  0
   -1.0323   -0.7500    0.0000 C   0  0  0  0  0  0  0  0  0  0  0  0
    0.3943   -1.2135    0.0000 C   0  0  0  0  0  0  0  0  0  0  0  0
    0.8578   -2.6401    0.0000 C   0  0  0  0  0  0  0  0  0  0  0  0
    2.3250   -2.9520    0.0000 O   0  0  0  0  0  0  0  0  0  0  0  0
   -0.1459   -3.7548    0.0000 N   0  0  0  0  0  0  0  0  0  0  0  0
    0.3177   -5.1814    0.0000 C   0  0  0  0  0  0  0  0  0  0  0  0
   -0.6860   -6.2961    0.0000 C   0  0  0  0  0  0  0  0  0  0  0  0
   -0.2225   -7.7227    0.0000 C   0  0  0  0  0  0  0  0  0  0  0  0
    0.2410   -9.1493    0.0000 C   0  0  0  0  0  0  0  0  0  0  0  0
    1.7849   -5.4933    0.0000 C   0  0  0  0  0  0  0  0  0  0  0  0
    2.7886   -4.3786    0.0000 O   0  0  0  0  0  0  0  0  0  0  0  0
    2.2484   -6.9199    0.0000 O   0  0  0  0  0  0  0  0  0  0  0  0
  1  2  1  0
  2  3  1  0
  3  4  1  0
  4  5  1  0
  5  6  1  0
  6  7  1  0
  6  8  1  0
  1  9  1  0
  9 10  1  0
 10 11  2  0
 10 12  1  0
 12 13  1  0
 12 14  1  0
 14 15  1  6
 15 16  1  0
 16 17  1  0
 16 18  1  0
 14 19  1  0
 19 20  2  0
 19 21  1  0
 21 22  1  0
 22 23  1  6
 23 24  1  0
 24 25  1  0
 24 26  1  0
 22 27  1  0
 27 28  2  0
 27 29  1  0
 29 30  1  0
 30 31  1  0
 31 32  1  0
 32 33  1  0
 33 34  1  6
 34 35  2  0
 34 36  1  0
 36 37  1  0
 37 38  1  6
 38 39  1  0
 39 40  3  0
 37 41  1  0
 41 42  2  0
 41 43  1  0
 33 29  1  0
M  END
$$$$

     RDKit          2D

 45 46  0  0  0  0  0  0  0  0999 V2000
    0.7500   -6.4952    0.0000 N   0  0  0  0  0  0  0  0  0  0  0  0
    1.5000   -5.1962    0.0000 C   0  0  0  0  0  0  0  0  0  0  0  0
    0.7500   -3.8971    0.0000 C   0  0  0  0  0  0  0  0  0  0  0  0
    1.5000   -2.5981    0.0000 O   0  0  0  0  0  0  0  0  0  0  0  0
    0.7500   -1.2990    0.0000 C   0  0  0  0  0  0  0  0  0  0  0  0
    1.5000    0.0000    0.0000 C   0  0  0  0  0  0  0  0  0  0  0  0
    0.7500    1.2990    0.0000 C   0  0  0  0  0  0  0  0  0  0  0  0
   -0.7500    1.2990    0.0000 C   0  0  0  0  0  0  0  0  0  0  0  0
   -1.5000    0.0000    0.0000 C   0  0  0  0  0  0  0  0  0  0  0  0
   -0.7500   -1.2990    0.0000 C   0  0  0  0  0  0  0  0  0  0  0  0
    1.5000   -7.7942    0.0000 C   0  0  0  0  0  0  0  0  0  0  0  0
    0.7500   -9.0933    0.0000 C   0  0  0  0  0  0  0  0  0  0  0  0
   -0.7500   -9.0933    0.0000 O   0  0  0  0  0  0  0  0  0  0  0  0
    1.5000  -10.3923    0.0000 N   0  0  0  0  0  0  0  0  0  0  0  0
    0.7500  -11.6913    0.0000 C   0  0  0  0  0  0  0  0  0  0  0  0
    3.0000  -10.3923    0.0000 C   0  0  0  0  0  0  0  0  0  0  0  0
    3.7500  -11.6913    0.0000 C   0  0  0  0  0  0  0  0  0  0  0  0
    5.2500  -11.6913    0.0000 C   0  0  0  0  0  0  0  0  0  0  0  0
    6.0000  -12.9904    0.0000 C   0  0  0  0  0  0  0  0  0  0  0  0
    6.0000  -10.3923    0.0000 C   0  0  0  0  0  0  0  0  0  0  0  0
    3.7500   -9.0933    0.0000 C   0  0  0  0  0  0  0  0  0  0  0  0
    3.0000   -7.7942    0.0000 O   0  0  0  0  0  0  0  0  0  0  0  0
    5.2500   -9.0933    0.0000 N   0  0  0  0  0  0  0  0  0  0  0  0
    6.0000   -7.7942    0.0000 C   0  0  0  0  0  0  0  0  0  0  0  0
    7.5000   -7.7942    0.0000 C   0  0  0  0  0  0  0  0  0  0  0  0
    8.2500   -9.0933    0.0000 C   0  0  0  0  0  0  0  0  0  0  0  0
    9.7500   -9.0933    0.0000 C   0  0  0  0  0  0  0  0  0  0  0  0
    7.5000  -10.3923    0.0000 C   0  0  0  0  0  0  0  0  0  0  0  0
    5.2500   -6.4952    0.0000 C   0  0  0  0  0  0  0  0  0  0  0  0
    3.7500   -6.4952    0.0000 O   0  0  0  0  0  0  0  0  0  0  0  0
    6.0000   -5.1962    0.0000 N   0  0  0  0  0  0  0  0  0  0  0  0
    5.3899   -3.8258    0.0000 C   0  0  0  0  0  0  0  0  0  0  0  0
    6.5046   -2.8221    0.0000 C   0  0  0  0  0  0  0  0  0  0  0  0
    7.8037   -3.5721    0.0000 C   0  0  0  0  0  0  0  0  0  0  0  0
    7.4918   -5.0394    0.0000 C   0  0  0  0  0  0  0  0  0  0  0  0
    8.4955   -6.1541    0.0000 C   0  0  0  0  0  0  0  0  0  0  0  0
    8.3909   -7.6504    0.0000 O   0  0  0  0  0  0  0  0  0  0  0  0
    9.9627   -5.8422    0.0000 N   0  0  0  0  0  0  0  0  0  0  0  0
   10.9664   -6.9569    0.0000 C   0  0  0  0  0  0  0  0  0  0  0  0
   12.4336   -6.6451    0.0000 C   0  0  0  0  0  0  0  0  0  0  0  0
   13.4373   -7.7598    0.0000 C   0  0  0  0  0  0  0  0  0  0  0  0
   14.4410   -8.8745    0.0000 C   0  0  0  0  0  0  0  0  0  0  0  0
   10.5029   -8.3835    0.0000 C   0  0  0  0  0  0  0  0  0  0  0  0
    9.0356   -8.6954    0.0000 O   0  0  0  0  0  0  0  0  0  0  0  0
   11.5066   -9.4982    0.0000 O   0  0  0  0  0  0  0  0  0  0  0  0
  1  2  1  0
  2  3  1  0
  3  4  1  0
  4  5  1  0
  5  6  2  0
  6  7  1  0
  7  8  2  0
  8  9  1  0
  9 10  2  0
  1 11  1  0
 11 12  1  0
 12 13  2  0
 12 14  1  0
 14 15  1  0
 14 16  1  0
 16 17  1  1
 17 18  1  0
 18 19  1  0
 18 20  1  0
 16 21  1  0
 21 22  2  0
 21 23  1  0
 23 24  1  0
 24 25  1  1
 25 26  1  0
 26 27  1  0
 26 28  1  0
 24 29  1  0
 29 30  2  0
 29 31  1  0
 31 32  1  0
 32 33  1  0
 33 34  1  0
 34 35  1  0
 35 36  1  1
 36 37  2  0
 36 38  1  0
 38 39  1  0
 39 40  1  1
 40 41  1  0
 41 42  3  0
 39 43  1  0
 43 44  2  0
 43 45  1  0
 10  5  1  0
 35 31  1  0
M  END
$$$$

     RDKit          2D

 48 49  0  0  0  0  0  0  0  0999 V2000
    1.5000  -12.9904    0.0000 N   0  0  0  0  0  0  0  0  0  0  0  0
    0.7500  -14.2894    0.0000 C   0  0  0  0  0  0  0  0  0  0  0  0
    1.5000  -15.5885    0.0000 C   0  0  0  0  0  0  0  0  0  0  0  0
    0.7500  -16.8875    0.0000 C   0  0  0  0  0  0  0  0  0  0  0  0
    1.5000  -18.1865    0.0000 C   0  0  0  0  0  0  0  0  0  0  0  0
    0.7500  -19.4856    0.0000 C   0  0  0  0  0  0  0  0  0  0  0  0
   -0.7500  -19.4856    0.0000 C   0  0  0  0  0  0  0  0  0  0  0  0
   -1.5000  -18.1865    0.0000 C   0  0  0  0  0  0  0  0  0  0  0  0
   -3.0000  -18.1865    0.0000 O   0  0  0  0  0  0  0  0  0  0  0  0
   -3.7500  -16.8875    0.0000 C   0  0  0  0  0  0  0  0  0  0  0  0
   -0.7500  -16.8875    0.0000 C   0  0  0  0  0  0  0  0  0  0  0  0
   -1.5000  -20.7846    0.0000 O   0  0  0  0  0  0  0  0  0  0  0  0
   -0.7500  -22.0836    0.0000 C   0  0  0  0  0  0  0  0  0  0  0  0
    0.7500  -11.6913    0.0000 C   0  0  0  0  0  0  0  0  0  0  0  0
    1.5000  -10.3923    0.0000 C   0  0  0  0  0  0  0  0  0  0  0  0
    3.0000  -10.3923    0.0000 O   0  0  0  0  0  0  0  0  0  0  0  0
    0.7500   -9.0933    0.0000 N   0  0  0  0  0  0  0  0  0  0  0  0
    1.5000   -7.7942    0.0000 C   0  0  0  0  0  0  0  0  0  0  0  0
   -0.7500   -9.0933    0.0000 C   0  0  0  0  0  0  0  0  0  0  0  0
   -1.5000  -10.3923    0.0000 C   0  0  0  0  0  0  0  0  0  0  0  0
   -3.0000  -10.3923    0.0000 C   0  0  0  0  0  0  0  0  0  0  0  0
   -3.7500  -11.6913    0.0000 C   0  0  0  0  0  0  0  0  0  0  0  0
   -3.7500   -9.0933    0.0000 C   0  0  0  0  0  0  0  0  0  0  0  0
   -1.5000   -7.7942    0.0000 C   0  0  0  0  0  0  0  0  0  0  0  0
   -0.7500   -6.4952    0.0000 O   0  0  0  0  0  0  0  0  0  0  0  0
   -3.0000   -7.7942    0.0000 N   0  0  0  0  0  0  0  0  0  0  0  0
   -3.7500   -6.4952    0.0000 C   0  0  0  0  0  0  0  0  0  0  0  0
   -5.2500   -6.4952    0.0000 C   0  0  0  0  0  0  0  0  0  0  0  0
   -6.0000   -7.7942    0.0000 C   0  0  0  0  0  0  0  0  0  0  0  0
   -7.5000   -7.7942    0.0000 C   0  0  0  0  0  0  0  0  0  0  0  0
   -5.2500   -9.0933    0.0000 C   0  0  0  0  0  0  0  0  0  0  0  0
   -3.0000   -5.1962    0.0000 C   0  0  0  0  0  0  0  0  0  0  0  0
   -1.5000   -5.1962    0.0000 O   0  0  0  0  0  0  0  0  0  0  0  0
   -3.7500   -3.8971    0.0000 N   0  0  0  0  0  0  0  0  0  0  0  0
   -3.1399   -2.5268    0.0000 C   0  0  0  0  0  0  0  0  0  0  0  0
   -4.2546   -1.5231    0.0000 C   0  0  0  0  0  0  0  0  0  0  0  0
   -5.5537   -2.2731    0.0000 C   0  0  0  0  0  0  0  0  0  0  0  0
   -5.2418   -3.7403    0.0000 C   0  0  0  0  0  0  0  0  0  0  0  0
   -6.2455   -4.8550    0.0000 C   0  0  0  0  0  0  0  0  0  0  0  0
   -6.1409   -6.3514    0.0000 O   0  0  0  0  0  0  0  0  0  0  0  0
   -7.7127   -4.5432    0.0000 N   0  0  0  0  0  0  0  0  0  0  0  0
   -8.7164   -5.6579    0.0000 C   0  0  0  0  0  0  0  0  0  0  0  0
  -10.1836   -5.3460    0.0000 C   0  0  0  0  0  0  0  0  0  0  0  0
  -11.1873   -6.4607    0.0000 C   0  0  0  0  0  0  0  0  0  0  0  0
  -12.1910   -7.5755    0.0000 C   0  0  0  0  0  0  0  0  0  0  0  0
   -8.2529   -7.0845    0.0000 C   0  0  0  0  0  0  0  0  0  0  0  0
   -6.7856   -7.3963    0.0000 O   0  0  0  0  0  0  0  0  0  0  0  0
   -9.2566   -8.1992    0.0000 O   0  0  0  0  0  0  0  0  0  0  0  0
  1  2  1  0
  2  3  1  0
  3  4  1  0
  4  5  2  0
  5  6  1  0
  6  7  2  0
  7  8  1  0
  8  9  1  0
  9 10  1  0
  8 11  2  0
  7 12  1  0
 12 13  1  0
  1 14  1  0
 14 15  1  0
 15 16  2  0
 15 17  1  0
 17 18  1  0
 17 19  1  0
 19 20  1  6
 20 21  1  0
 21 22  1  0
 21 23  1  0
 19 24  1  0
 24 25  2  0
 24 26  1  0
 26 27  1  0
 27 28  1  6
 28 29  1  0
 29 30  1  0
 29 31  1  0
 27 32  1  0
 32 33  2  0
 32 34  1  0
 34 35  1  0
 35 36  1  0
 36 37  1  0
 37 38  1  0
 38 39  1  6
 39 40  2  0
 39 41  1  0
 41 42  1  0
 42 43  1  6
 43 44  1  0
 44 45  3  0
 42 46  1  0
 46 47  2  0
 46 48  1  0
 11  4  1  0
 38 34  1  0
M  END
$$$$

     RDKit          2D

 55 56  0  0  0  0  0  0  0  0999 V2000
   -2.4876  -12.5103    0.0000 N   0  0  0  0  0  0  0  0  0  0  0  0
   -1.1173  -13.1204    0.0000 C   0  0  0  0  0  0  0  0  0  0  0  0
   -0.9605  -14.6122    0.0000 C   0  0  0  0  0  0  0  0  0  0  0  0
   -2.1741  -15.4938    0.0000 C   0  0  0  0  0  0  0  0  0  0  0  0
   -2.0173  -16.9856    0.0000 C   0  0  0  0  0  0  0  0  0  0  0  0
   -3.5444  -14.8837    0.0000 C   0  0  0  0  0  0  0  0  0  0  0  0
    0.0962  -12.2387    0.0000 C   0  0  0  0  0  0  0  0  0  0  0  0
    1.4665  -12.8488    0.0000 O   0  0  0  0  0  0  0  0  0  0  0  0
   -0.0606  -10.7469    0.0000 N   0  0  0  0  0  0  0  0  0  0  0  0
    1.1529   -9.8652    0.0000 C   0  0  0  0  0  0  0  0  0  0  0  0
    2.5233  -10.4753    0.0000 C   0  0  0  0  0  0  0  0  0  0  0  0
    3.7368   -9.5937    0.0000 C   0  0  0  0  0  0  0  0  0  0  0  0
    3.5800   -8.1019    0.0000 C   0  0  0  0  0  0  0  0  0  0  0  0
    5.1071  -10.2038    0.0000 C   0  0  0  0  0  0  0  0  0  0  0  0
    0.9961   -8.3735    0.0000 C   0  0  0  0  0  0  0  0  0  0  0  0
    2.2097   -7.4918    0.0000 O   0  0  0  0  0  0  0  0  0  0  0  0
   -0.3742   -7.7634    0.0000 N   0  0  0  0  0  0  0  0  0  0  0  0
   -1.6732   -8.5134    0.0000 C   0  0  0  0  0  0  0  0  0  0  0  0
   -2.7879   -7.5097    0.0000 C   0  0  0  0  0  0  0  0  0  0  0  0
   -2.1778   -6.1393    0.0000 C   0  0  0  0  0  0  0  0  0  0  0  0
   -0.6860   -6.2961    0.0000 C   0  0  0  0  0  0  0  0  0  0  0  0
    0.3177   -5.1814    0.0000 C   0  0  0  0  0  0  0  0  0  0  0  0
    1.7849   -5.4933    0.0000 O   0  0  0  0  0  0  0  0  0  0  0  0
   -0.1459   -3.7548    0.0000 N   0  0  0  0  0  0  0  0  0  0  0  0
    0.8578   -2.6401    0.0000 C   0  0  0  0  0  0  0  0  0  0  0  0
   -1.6131   -3.4430    0.0000 C   0  0  0  0  0  0  0  0  0  0  0  0
   -2.6168   -4.5577    0.0000 C   0  0  0  0  0  0  0  0  0  0  0  0
   -4.0840   -4.2458    0.0000 C   0  0  0  0  0  0  0  0  0  0  0  0
   -5.0877   -5.3605    0.0000 C   0  0  0  0  0  0  0  0  0  0  0  0
   -4.5475   -2.8192    0.0000 C   0  0  0  0  0  0  0  0  0  0  0  0
   -2.0766   -2.0164    0.0000 C   0  0  0  0  0  0  0  0  0  0  0  0
   -3.5438   -1.7045    0.0000 O   0  0  0  0  0  0  0  0  0  0  0  0
   -1.0729   -0.9017    0.0000 N   0  0  0  0  0  0  0  0  0  0  0  0
   -1.5364    0.5249    0.0000 C   0  0  0  0  0  0  0  0  0  0  0  0
   -0.5328    1.6396    0.0000 C   0  0  0  0  0  0  0  0  0  0  0  0
    0.9345    1.3278    0.0000 C   0  0  0  0  0  0  0  0  0  0  0  0
    1.9382    2.4425    0.0000 C   0  0  0  0  0  0  0  0  0  0  0  0
    1.3980   -0.0988    0.0000 C   0  0  0  0  0  0  0  0  0  0  0  0
   -3.0037    0.8368    0.0000 C   0  0  0  0  0  0  0  0  0  0  0  0
   -4.0074   -0.2779    0.0000 O   0  0  0  0  0  0  0  0  0  0  0  0
   -3.4672    2.2634    0.0000 N   0  0  0  0  0  0  0  0  0  0  0  0
   -2.5855    3.4769    0.0000 C   0  0  0  0  0  0  0  0  0  0  0  0
   -3.4672    4.6904    0.0000 C   0  0  0  0  0  0  0  0  0  0  0  0
   -4.8938    4.2269    0.0000 C   0  0  0  0  0  0  0  0  0  0  0  0
   -4.8938    2.7269    0.0000 C   0  0  0  0  0  0  0  0  0  0  0  0
   -6.1073    1.8452    0.0000 C   0  0  0  0  0  0  0  0  0  0  0  0
   -5.9505    0.3534    0.0000 O   0  0  0  0  0  0  0  0  0  0  0  0
   -7.4776    2.4553    0.0000 N   0  0  0  0  0  0  0  0  0  0  0  0
   -8.6911    1.5737    0.0000 C   0  0  0  0  0  0  0  0  0  0  0  0
  -10.0615    2.1838    0.0000 C   0  0  0  0  0  0  0  0  0  0  0  0
  -11.2750    1.3021    0.0000 C   0  0  0  0  0  0  0  0  0  0  0  0
  -12.4885    0.4204    0.0000 C   0  0  0  0  0  0  0  0  0  0  0  0
   -8.5344    0.0819    0.0000 C   0  0  0  0  0  0  0  0  0  0  0  0
   -9.7479   -0.7998    0.0000 O   0  0  0  0  0  0  0  0  0  0  0  0
   -7.1640   -0.5282    0.0000 O   0  0  0  0  0  0  0  0  0  0  0  0
  2  1  1  6
  2  3  1  0
  3  4  1  0
  4  5  1  0
  4  6  1  0
  2  7  1  0
  7  8  2  0
  7  9  1  0
  9 10  1  0
 10 11  1  6
 11 12  1  0
 12 13  1  0
 12 14  1  0
 10 15  1  0
 15 16  2  0
 15 17  1  0
 17 18  1  0
 18 19  1  0
 19 20  1  0
 20 21  1  0
 21 22  1  1
 22 23  2  0
 22 24  1  0
 24 25  1  0
 24 26  1  0
 26 27  1  6
 27 28  1  0
 28 29  1  0
 28 30  1  0
 26 31  1  0
 31 32  2  0
 31 33  1  0
 33 34  1  0
 34 35  1  1
 35 36  1  0
 36 37  1  0
 36 38  1  0
 34 39  1  0
 39 40  2  0
 39 41  1  0
 41 42  1  0
 42 43  1  0
 43 44  1  0
 44 45  1  0
 45 46  1  6
 46 47  2  0
 46 48  1  0
 48 49  1  0
 49 50  1  6
 50 51  1  0
 51 52  3  0
 49 53  1  0
 53 54  2  0
 53 55  1  0
 45 41  1  0
 21 17  1  0
M  END
$$$$

     RDKit          2D

 55 56  0  0  0  0  0  0  0  0999 V2000
   -2.4876  -12.5103    0.0000 N   0  0  0  0  0  0  0  0  0  0  0  0
   -1.1173  -13.1204    0.0000 C   0  0  0  0  0  0  0  0  0  0  0  0
   -0.9605  -14.6122    0.0000 C   0  0  0  0  0  0  0  0  0  0  0  0
   -2.1741  -15.4938    0.0000 C   0  0  0  0  0  0  0  0  0  0  0  0
   -2.0173  -16.9856    0.0000 C   0  0  0  0  0  0  0  0  0  0  0  0
   -3.5444  -14.8837    0.0000 C   0  0  0  0  0  0  0  0  0  0  0  0
    0.0962  -12.2387    0.0000 C   0  0  0  0  0  0  0  0  0  0  0  0
    1.4665  -12.8488    0.0000 O   0  0  0  0  0  0  0  0  0  0  0  0
   -0.0606  -10.7469    0.0000 N   0  0  0  0  0  0  0  0  0  0  0  0
    1.1529   -9.8652    0.0000 C   0  0  0  0  0  0  0  0  0  0  0  0
    2.5233  -10.4753    0.0000 C   0  0  0  0  0  0  0  0  0  0  0  0
    3.7368   -9.5937    0.0000 C   0  0  0  0  0  0  0  0  0  0  0  0
    3.5800   -8.1019    0.0000 C   0  0  0  0  0  0  0  0  0  0  0  0
    5.1071  -10.2038    0.0000 C   0  0  0  0  0  0  0  0  0  0  0  0
    0.9961   -8.3735    0.0000 C   0  0  0  0  0  0  0  0  0  0  0  0
    2.2097   -7.4918    0.0000 O   0  0  0  0  0  0  0  0  0  0  0  0
   -0.3742   -7.7634    0.0000 N   0  0  0  0  0  0  0  0  0  0  0  0
   -1.6732   -8.5134    0.0000 C   0  0  0  0  0  0  0  0  0  0  0  0
   -2.7879   -7.5097    0.0000 C   0  0  0  0  0  0  0  0  0  0  0  0
   -2.1778   -6.1393    0.0000 C   0  0  0  0  0  0  0  0  0  0  0  0
   -0.6860   -6.2961    0.0000 C   0  0  0  0  0  0  0  0  0  0  0  0
    0.3177   -5.1814    0.0000 C   0  0  0  0  0  0  0  0  0  0  0  0
    1.7849   -5.4933    0.0000 O   0  0  0  0  0  0  0  0  0  0  0  0
   -0.1459   -3.7548    0.0000 N   0  0  0  0  0  0  0  0  0  0  0  0
    0.8578   -2.6401    0.0000 C   0  0  0  0  0  0  0  0  0  0  0  0
   -1.6131   -3.4430    0.0000 C   0  0  0  0  0  0  0  0  0  0  0  0
   -2.6168   -4.5577    0.0000 C   0  0  0  0  0  0  0  0  0  0  0  0
   -4.0840   -4.2458    0.0000 C   0  0  0  0  0  0  0  0  0  0  0  0
   -5.0877   -5.3605    0.0000 C   0  0  0  0  0  0  0  0  0  0  0  0
   -4.5475   -2.8192    0.0000 C   0  0  0  0  0  0  0  0  0  0  0  0
   -2.0766   -2.0164    0.0000 C   0  0  0  0  0  0  0  0  0  0  0  0
   -3.5438   -1.7045    0.0000 O   0  0  0  0  0  0  0  0  0  0  0  0
   -1.0729   -0.9017    0.0000 N   0  0  0  0  0  0  0  0  0  0  0  0
   -1.5364    0.5249    0.0000 C   0  0  0  0  0  0  0  0  0  0  0  0
   -0.5328    1.6396    0.0000 C   0  0  0  0  0  0  0  0  0  0  0  0
    0.9345    1.3278    0.0000 C   0  0  0  0  0  0  0  0  0  0  0  0
    1.9382    2.4425    0.0000 C   0  0  0  0  0  0  0  0  0  0  0  0
    1.3980   -0.0988    0.0000 C   0  0  0  0  0  0  0  0  0  0  0  0
   -3.0037    0.8368    0.0000 C   0  0  0  0  0  0  0  0  0  0  0  0
   -4.0074   -0.2779    0.0000 O   0  0  0  0  0  0  0  0  0  0  0  0
   -3.4672    2.2634    0.0000 N   0  0  0  0  0  0  0  0  0  0  0  0
   -2.5855    3.4769    0.0000 C   0  0  0  0  0  0  0  0  0  0  0  0
   -3.4672    4.6904    0.0000 C   0  0  0  0  0  0  0  0  0  0  0  0
   -4.8938    4.2269    0.0000 C   0  0  0  0  0  0  0  0  0  0  0  0
   -4.8938    2.7269    0.0000 C   0  0  0  0  0  0  0  0  0  0  0  0
   -6.1073    1.8452    0.0000 C   0  0  0  0  0  0  0  0  0  0  0  0
   -5.9505    0.3534    0.0000 O   0  0  0  0  0  0  0  0  0  0  0  0
   -7.4776    2.4553    0.0000 N   0  0  0  0  0  0  0  0  0  0  0  0
   -8.6911    1.5737    0.0000 C   0  0  0  0  0  0  0  0  0  0  0  0
  -10.0615    2.1838    0.0000 C   0  0  0  0  0  0  0  0  0  0  0  0
  -11.2750    1.3021    0.0000 C   0  0  0  0  0  0  0  0  0  0  0  0
  -12.4885    0.4204    0.0000 C   0  0  0  0  0  0  0  0  0  0  0  0
   -8.5344    0.0819    0.0000 C   0  0  0  0  0  0  0  0  0  0  0  0
   -9.7479   -0.7998    0.0000 O   0  0  0  0  0  0  0  0  0  0  0  0
   -7.1640   -0.5282    0.0000 O   0  0  0  0  0  0  0  0  0  0  0  0
  2  1  1  1
  2  3  1  0
  3  4  1  0
  4  5  1  0
  4  6  1  0
  2  7  1  0
  7  8  2  0
  7  9  1  0
  9 10  1  0
 10 11  1  6
 11 12  1  0
 12 13  1  0
 12 14  1  0
 10 15  1  0
 15 16  2  0
 15 17  1  0
 17 18  1  0
 18 19  1  0
 19 20  1  0
 20 21  1  0
 21 22  1  1
 22 23  2  0
 22 24  1  0
 24 25  1  0
 24 26  1  0
 26 27  1  6
 27 28  1  0
 28 29  1  0
 28 30  1  0
 26 31  1  0
 31 32  2  0
 31 33  1  0
 33 34  1  0
 34 35  1  1
 35 36  1  0
 36 37  1  0
 36 38  1  0
 34 39  1  0
 39 40  2  0
 39 41  1  0
 41 42  1  0
 42 43  1  0
 43 44  1  0
 44 45  1  0
 45 46  1  6
 46 47  2  0
 46 48  1  0
 48 49  1  0
 49 50  1  6
 50 51  1  0
 51 52  3  0
 49 53  1  0
 53 54  2  0
 53 55  1  0
 45 41  1  0
 21 17  1  0
M  END
$$$$

     RDKit          2D

 56 57  0  0  0  0  0  0  0  0999 V2000
   -2.4876  -12.5103    0.0000 N   0  0  0  0  0  0  0  0  0  0  0  0
   -3.7012  -13.3920    0.0000 C   0  0  0  0  0  0  0  0  0  0  0  0
   -1.1173  -13.1204    0.0000 C   0  0  0  0  0  0  0  0  0  0  0  0
   -0.9605  -14.6122    0.0000 C   0  0  0  0  0  0  0  0  0  0  0  0
   -2.1741  -15.4938    0.0000 C   0  0  0  0  0  0  0  0  0  0  0  0
   -2.0173  -16.9856    0.0000 C   0  0  0  0  0  0  0  0  0  0  0  0
   -3.5444  -14.8837    0.0000 C   0  0  0  0  0  0  0  0  0  0  0  0
    0.0962  -12.2387    0.0000 C   0  0  0  0  0  0  0  0  0  0  0  0
    1.4665  -12.8488    0.0000 O   0  0  0  0  0  0  0  0  0  0  0  0
   -0.0606  -10.7469    0.0000 N   0  0  0  0  0  0  0  0  0  0  0  0
    1.1529   -9.8652    0.0000 C   0  0  0  0  0  0  0  0  0  0  0  0
    2.5233  -10.4753    0.0000 C   0  0  0  0  0  0  0  0  0  0  0  0
    3.7368   -9.5937    0.0000 C   0  0  0  0  0  0  0  0  0  0  0  0
    5.1071  -10.2038    0.0000 C   0  0  0  0  0  0  0  0  0  0  0  0
    3.5800   -8.1019    0.0000 C   0  0  0  0  0  0  0  0  0  0  0  0
    0.9961   -8.3735    0.0000 C   0  0  0  0  0  0  0  0  0  0  0  0
    2.2097   -7.4918    0.0000 O   0  0  0  0  0  0  0  0  0  0  0  0
   -0.3742   -7.7634    0.0000 N   0  0  0  0  0  0  0  0  0  0  0  0
   -1.6732   -8.5134    0.0000 C   0  0  0  0  0  0  0  0  0  0  0  0
   -2.7879   -7.5097    0.0000 C   0  0  0  0  0  0  0  0  0  0  0  0
   -2.1778   -6.1393    0.0000 C   0  0  0  0  0  0  0  0  0  0  0  0
   -0.6860   -6.2961    0.0000 C   0  0  0  0  0  0  0  0  0  0  0  0
    0.3177   -5.1814    0.0000 C   0  0  0  0  0  0  0  0  0  0  0  0
    1.7849   -5.4933    0.0000 O   0  0  0  0  0  0  0  0  0  0  0  0
   -0.1459   -3.7548    0.0000 N   0  0  0  0  0  0  0  0  0  0  0  0
    0.8578   -2.6401    0.0000 C   0  0  0  0  0  0  0  0  0  0  0  0
   -1.6131   -3.4430    0.0000 C   0  0  0  0  0  0  0  0  0  0  0  0
   -2.6168   -4.5577    0.0000 C   0  0  0  0  0  0  0  0  0  0  0  0
   -4.0840   -4.2458    0.0000 C   0  0  0  0  0  0  0  0  0  0  0  0
   -5.0877   -5.3605    0.0000 C   0  0  0  0  0  0  0  0  0  0  0  0
   -4.5475   -2.8192    0.0000 C   0  0  0  0  0  0  0  0  0  0  0  0
   -2.0766   -2.0164    0.0000 C   0  0  0  0  0  0  0  0  0  0  0  0
   -3.5438   -1.7045    0.0000 O   0  0  0  0  0  0  0  0  0  0  0  0
   -1.0729   -0.9017    0.0000 N   0  0  0  0  0  0  0  0  0  0  0  0
   -1.5364    0.5249    0.0000 C   0  0  0  0  0  0  0  0  0  0  0  0
   -0.5328    1.6396    0.0000 C   0  0  0  0  0  0  0  0  0  0  0  0
    0.9345    1.3278    0.0000 C   0  0  0  0  0  0  0  0  0  0  0  0
    1.9382    2.4425    0.0000 C   0  0  0  0  0  0  0  0  0  0  0  0
    1.3980   -0.0988    0.0000 C   0  0  0  0  0  0  0  0  0  0  0  0
   -3.0037    0.8368    0.0000 C   0  0  0  0  0  0  0  0  0  0  0  0
   -4.0074   -0.2779    0.0000 O   0  0  0  0  0  0  0  0  0  0  0  0
   -3.4672    2.2634    0.0000 N   0  0  0  0  0  0  0  0  0  0  0  0
   -2.5855    3.4769    0.0000 C   0  0  0  0  0  0  0  0  0  0  0  0
   -3.4672    4.6904    0.0000 C   0  0  0  0  0  0  0  0  0  0  0  0
   -4.8938    4.2269    0.0000 C   0  0  0  0  0  0  0  0  0  0  0  0
   -4.8938    2.7269    0.0000 C   0  0  0  0  0  0  0  0  0  0  0  0
   -6.1073    1.8452    0.0000 C   0  0  0  0  0  0  0  0  0  0  0  0
   -5.9505    0.3534    0.0000 O   0  0  0  0  0  0  0  0  0  0  0  0
   -7.4776    2.4553    0.0000 N   0  0  0  0  0  0  0  0  0  0  0  0
   -8.6911    1.5737    0.0000 C   0  0  0  0  0  0  0  0  0  0  0  0
  -10.0615    2.1838    0.0000 C   0  0  0  0  0  0  0  0  0  0  0  0
  -11.2750    1.3021    0.0000 C   0  0  0  0  0  0  0  0  0  0  0  0
  -12.4885    0.4204    0.0000 C   0  0  0  0  0  0  0  0  0  0  0  0
   -8.5344    0.0819    0.0000 C   0  0  0  0  0  0  0  0  0  0  0  0
   -9.7479   -0.7998    0.0000 O   0  0  0  0  0  0  0  0  0  0  0  0
   -7.1640   -0.5282    0.0000 O   0  0  0  0  0  0  0  0  0  0  0  0
  1  2  1  0
  1  3  1  0
  3  4  1  6
  4  5  1  0
  5  6  1  0
  5  7  1  0
  3  8  1  0
  8  9  2  0
  8 10  1  0
 10 11  1  0
 11 12  1  6
 12 13  1  0
 13 14  1  0
 13 15  1  0
 11 16  1  0
 16 17  2  0
 16 18  1  0
 18 19  1  0
 19 20  1  0
 20 21  1  0
 21 22  1  0
 22 23  1  1
 23 24  2  0
 23 25  1  0
 25 26  1  0
 25 27  1  0
 27 28  1  6
 28 29  1  0
 29 30  1  0
 29 31  1  0
 27 32  1  0
 32 33  2  0
 32 34  1  0
 34 35  1  0
 35 36  1  1
 36 37  1  0
 37 38  1  0
 37 39  1  0
 35 40  1  0
 40 41  2  0
 40 42  1  0
 42 43  1  0
 43 44  1  0
 44 45  1  0
 45 46  1  0
 46 47  1  6
 47 48  2  0
 47 49  1  0
 49 50  1  0
 50 51  1  6
 51 52  1  0
 52 53  3  0
 50 54  1  0
 54 55  2  0
 54 56  1  0
 46 42  1  0
 22 18  1  0
M  END
$$$$

     RDKit          2D

 56 57  0  0  0  0  0  0  0  0999 V2000
   -2.4876  -12.5103    0.0000 N   0  0  0  0  0  0  0  0  0  0  0  0
   -3.7012  -13.3920    0.0000 C   0  0  0  0  0  0  0  0  0  0  0  0
   -1.1173  -13.1204    0.0000 C   0  0  0  0  0  0  0  0  0  0  0  0
   -0.9605  -14.6122    0.0000 C   0  0  0  0  0  0  0  0  0  0  0  0
   -2.1741  -15.4938    0.0000 C   0  0  0  0  0  0  0  0  0  0  0  0
   -2.0173  -16.9856    0.0000 C   0  0  0  0  0  0  0  0  0  0  0  0
   -3.5444  -14.8837    0.0000 C   0  0  0  0  0  0  0  0  0  0  0  0
    0.0962  -12.2387    0.0000 C   0  0  0  0  0  0  0  0  0  0  0  0
    1.4665  -12.8488    0.0000 O   0  0  0  0  0  0  0  0  0  0  0  0
   -0.0606  -10.7469    0.0000 N   0  0  0  0  0  0  0  0  0  0  0  0
    1.1529   -9.8652    0.0000 C   0  0  0  0  0  0  0  0  0  0  0  0
    2.5233  -10.4753    0.0000 C   0  0  0  0  0  0  0  0  0  0  0  0
    3.7368   -9.5937    0.0000 C   0  0  0  0  0  0  0  0  0  0  0  0
    5.1071  -10.2038    0.0000 C   0  0  0  0  0  0  0  0  0  0  0  0
    3.5800   -8.1019    0.0000 C   0  0  0  0  0  0  0  0  0  0  0  0
    0.9961   -8.3735    0.0000 C   0  0  0  0  0  0  0  0  0  0  0  0
    2.2097   -7.4918    0.0000 O   0  0  0  0  0  0  0  0  0  0  0  0
   -0.3742   -7.7634    0.0000 N   0  0  0  0  0  0  0  0  0  0  0  0
   -1.6732   -8.5134    0.0000 C   0  0  0  0  0  0  0  0  0  0  0  0
   -2.7879   -7.5097    0.0000 C   0  0  0  0  0  0  0  0  0  0  0  0
   -2.1778   -6.1393    0.0000 C   0  0  0  0  0  0  0  0  0  0  0  0
   -0.6860   -6.2961    0.0000 C   0  0  0  0  0  0  0  0  0  0  0  0
    0.3177   -5.1814    0.0000 C   0  0  0  0  0  0  0  0  0  0  0  0
    1.7849   -5.4933    0.0000 O   0  0  0  0  0  0  0  0  0  0  0  0
   -0.1459   -3.7548    0.0000 N   0  0  0  0  0  0  0  0  0  0  0  0
    0.8578   -2.6401    0.0000 C   0  0  0  0  0  0  0  0  0  0  0  0
   -1.6131   -3.4430    0.0000 C   0  0  0  0  0  0  0  0  0  0  0  0
   -2.6168   -4.5577    0.0000 C   0  0  0  0  0  0  0  0  0  0  0  0
   -4.0840   -4.2458    0.0000 C   0  0  0  0  0  0  0  0  0  0  0  0
   -5.0877   -5.3605    0.0000 C   0  0  0  0  0  0  0  0  0  0  0  0
   -4.5475   -2.8192    0.0000 C   0  0  0  0  0  0  0  0  0  0  0  0
   -2.0766   -2.0164    0.0000 C   0  0  0  0  0  0  0  0  0  0  0  0
   -3.5438   -1.7045    0.0000 O   0  0  0  0  0  0  0  0  0  0  0  0
   -1.0729   -0.9017    0.0000 N   0  0  0  0  0  0  0  0  0  0  0  0
   -1.5364    0.5249    0.0000 C   0  0  0  0  0  0  0  0  0  0  0  0
   -0.5328    1.6396    0.0000 C   0  0  0  0  0  0  0  0  0  0  0  0
    0.9345    1.3278    0.0000 C   0  0  0  0  0  0  0  0  0  0  0  0
    1.9382    2.4425    0.0000 C   0  0  0  0  0  0  0  0  0  0  0  0
    1.3980   -0.0988    0.0000 C   0  0  0  0  0  0  0  0  0  0  0  0
   -3.0037    0.8368    0.0000 C   0  0  0  0  0  0  0  0  0  0  0  0
   -4.0074   -0.2779    0.0000 O   0  0  0  0  0  0  0  0  0  0  0  0
   -3.4672    2.2634    0.0000 N   0  0  0  0  0  0  0  0  0  0  0  0
   -2.5855    3.4769    0.0000 C   0  0  0  0  0  0  0  0  0  0  0  0
   -3.4672    4.6904    0.0000 C   0  0  0  0  0  0  0  0  0  0  0  0
   -4.8938    4.2269    0.0000 C   0  0  0  0  0  0  0  0  0  0  0  0
   -4.8938    2.7269    0.0000 C   0  0  0  0  0  0  0  0  0  0  0  0
   -6.1073    1.8452    0.0000 C   0  0  0  0  0  0  0  0  0  0  0  0
   -5.9505    0.3534    0.0000 O   0  0  0  0  0  0  0  0  0  0  0  0
   -7.4776    2.4553    0.0000 N   0  0  0  0  0  0  0  0  0  0  0  0
   -8.6911    1.5737    0.0000 C   0  0  0  0  0  0  0  0  0  0  0  0
  -10.0615    2.1838    0.0000 C   0  0  0  0  0  0  0  0  0  0  0  0
  -11.2750    1.3021    0.0000 C   0  0  0  0  0  0  0  0  0  0  0  0
  -12.4885    0.4204    0.0000 C   0  0  0  0  0  0  0  0  0  0  0  0
   -8.5344    0.0819    0.0000 C   0  0  0  0  0  0  0  0  0  0  0  0
   -9.7479   -0.7998    0.0000 O   0  0  0  0  0  0  0  0  0  0  0  0
   -7.1640   -0.5282    0.0000 O   0  0  0  0  0  0  0  0  0  0  0  0
  1  2  1  0
  1  3  1  0
  3  4  1  1
  4  5  1  0
  5  6  1  0
  5  7  1  0
  3  8  1  0
  8  9  2  0
  8 10  1  0
 10 11  1  0
 11 12  1  6
 12 13  1  0
 13 14  1  0
 13 15  1  0
 11 16  1  0
 16 17  2  0
 16 18  1  0
 18 19  1  0
 19 20  1  0
 20 21  1  0
 21 22  1  0
 22 23  1  1
 23 24  2  0
 23 25  1  0
 25 26  1  0
 25 27  1  0
 27 28  1  6
 28 29  1  0
 29 30  1  0
 29 31  1  0
 27 32  1  0
 32 33  2  0
 32 34  1  0
 34 35  1  0
 35 36  1  1
 36 37  1  0
 37 38  1  0
 37 39  1  0
 35 40  1  0
 40 41  2  0
 40 42  1  0
 42 43  1  0
 43 44  1  0
 44 45  1  0
 45 46  1  0
 46 47  1  6
 47 48  2  0
 47 49  1  0
 49 50  1  0
 50 51  1  6
 51 52  1  0
 52 53  3  0
 50 54  1  0
 54 55  2  0
 54 56  1  0
 46 42  1  0
 22 18  1  0
M  END
$$$$

     RDKit          2D

 55 56  0  0  0  0  0  0  0  0999 V2000
   -2.4876  -12.5103    0.0000 N   0  0  0  0  0  0  0  0  0  0  0  0
   -1.1173  -13.1204    0.0000 C   0  0  0  0  0  0  0  0  0  0  0  0
   -0.9605  -14.6122    0.0000 C   0  0  0  0  0  0  0  0  0  0  0  0
   -2.1741  -15.4938    0.0000 C   0  0  0  0  0  0  0  0  0  0  0  0
   -2.0173  -16.9856    0.0000 C   0  0  0  0  0  0  0  0  0  0  0  0
   -3.5444  -14.8837    0.0000 C   0  0  0  0  0  0  0  0  0  0  0  0
    0.0962  -12.2387    0.0000 C   0  0  0  0  0  0  0  0  0  0  0  0
    1.4665  -12.8488    0.0000 O   0  0  0  0  0  0  0  0  0  0  0  0
   -0.0606  -10.7469    0.0000 N   0  0  0  0  0  0  0  0  0  0  0  0
    1.1529   -9.8652    0.0000 C   0  0  0  0  0  0  0  0  0  0  0  0
    2.5233  -10.4753    0.0000 C   0  0  0  0  0  0  0  0  0  0  0  0
    3.7368   -9.5937    0.0000 C   0  0  0  0  0  0  0  0  0  0  0  0
    3.5800   -8.1019    0.0000 C   0  0  0  0  0  0  0  0  0  0  0  0
    5.1071  -10.2038    0.0000 C   0  0  0  0  0  0  0  0  0  0  0  0
    0.9961   -8.3735    0.0000 C   0  0  0  0  0  0  0  0  0  0  0  0
    2.2097   -7.4918    0.0000 O   0  0  0  0  0  0  0  0  0  0  0  0
   -0.3742   -7.7634    0.0000 N   0  0  0  0  0  0  0  0  0  0  0  0
   -1.6732   -8.5134    0.0000 C   0  0  0  0  0  0  0  0  0  0  0  0
   -2.7879   -7.5097    0.0000 C   0  0  0  0  0  0  0  0  0  0  0  0
   -2.1778   -6.1393    0.0000 C   0  0  0  0  0  0  0  0  0  0  0  0
   -0.6860   -6.2961    0.0000 C   0  0  0  0  0  0  0  0  0  0  0  0
    0.3177   -5.1814    0.0000 C   0  0  0  0  0  0  0  0  0  0  0  0
    1.7849   -5.4933    0.0000 O   0  0  0  0  0  0  0  0  0  0  0  0
   -0.1459   -3.7548    0.0000 N   0  0  0  0  0  0  0  0  0  0  0  0
    0.8578   -2.6401    0.0000 C   0  0  0  0  0  0  0  0  0  0  0  0
   -1.6131   -3.4430    0.0000 C   0  0  0  0  0  0  0  0  0  0  0  0
   -2.6168   -4.5577    0.0000 C   0  0  0  0  0  0  0  0  0  0  0  0
   -4.0840   -4.2458    0.0000 C   0  0  0  0  0  0  0  0  0  0  0  0
   -5.0877   -5.3605    0.0000 C   0  0  0  0  0  0  0  0  0  0  0  0
   -4.5475   -2.8192    0.0000 C   0  0  0  0  0  0  0  0  0  0  0  0
   -2.0766   -2.0164    0.0000 C   0  0  0  0  0  0  0  0  0  0  0  0
   -3.5438   -1.7045    0.0000 O   0  0  0  0  0  0  0  0  0  0  0  0
   -1.0729   -0.9017    0.0000 N   0  0  0  0  0  0  0  0  0  0  0  0
   -1.5364    0.5249    0.0000 C   0  0  0  0  0  0  0  0  0  0  0  0
   -0.5328    1.6396    0.0000 C   0  0  0  0  0  0  0  0  0  0  0  0
    0.9345    1.3278    0.0000 C   0  0  0  0  0  0  0  0  0  0  0  0
    1.9382    2.4425    0.0000 C   0  0  0  0  0  0  0  0  0  0  0  0
    1.3980   -0.0988    0.0000 C   0  0  0  0  0  0  0  0  0  0  0  0
   -3.0037    0.8368    0.0000 C   0  0  0  0  0  0  0  0  0  0  0  0
   -4.0074   -0.2779    0.0000 O   0  0  0  0  0  0  0  0  0  0  0  0
   -3.4672    2.2634    0.0000 N   0  0  0  0  0  0  0  0  0  0  0  0
   -2.5855    3.4769    0.0000 C   0  0  0  0  0  0  0  0  0  0  0  0
   -3.4672    4.6904    0.0000 C   0  0  0  0  0  0  0  0  0  0  0  0
   -4.8938    4.2269    0.0000 C   0  0  0  0  0  0  0  0  0  0  0  0
   -4.8938    2.7269    0.0000 C   0  0  0  0  0  0  0  0  0  0  0  0
   -6.1073    1.8452    0.0000 C   0  0  0  0  0  0  0  0  0  0  0  0
   -5.9505    0.3534    0.0000 O   0  0  0  0  0  0  0  0  0  0  0  0
   -7.4776    2.4553    0.0000 N   0  0  0  0  0  0  0  0  0  0  0  0
   -8.6911    1.5737    0.0000 C   0  0  0  0  0  0  0  0  0  0  0  0
  -10.0615    2.1838    0.0000 C   0  0  0  0  0  0  0  0  0  0  0  0
  -11.2750    1.3021    0.0000 C   0  0  0  0  0  0  0  0  0  0  0  0
  -12.4885    0.4204    0.0000 C   0  0  0  0  0  0  0  0  0  0  0  0
   -8.5344    0.0819    0.0000 C   0  0  0  0  0  0  0  0  0  0  0  0
   -9.7479   -0.7998    0.0000 O   0  0  0  0  0  0  0  0  0  0  0  0
   -7.1640   -0.5282    0.0000 O   0  0  0  0  0  0  0  0  0  0  0  0
  2  1  1  6
  2  3  1  0
  3  4  1  0
  4  5  1  0
  4  6  1  0
  2  7  1  0
  7  8  2  0
  7  9  1  0
  9 10  1  0
 10 11  1  1
 11 12  1  0
 12 13  1  0
 12 14  1  0
 10 15  1  0
 15 16  2  0
 15 17  1  0
 17 18  1  0
 18 19  1  0
 19 20  1  0
 20 21  1  0
 21 22  1  1
 22 23  2  0
 22 24  1  0
 24 25  1  0
 24 26  1  0
 26 27  1  6
 27 28  1  0
 28 29  1  0
 28 30  1  0
 26 31  1  0
 31 32  2  0
 31 33  1  0
 33 34  1  0
 34 35  1  1
 35 36  1  0
 36 37  1  0
 36 38  1  0
 34 39  1  0
 39 40  2  0
 39 41  1  0
 41 42  1  0
 42 43  1  0
 43 44  1  0
 44 45  1  0
 45 46  1  6
 46 47  2  0
 46 48  1  0
 48 49  1  0
 49 50  1  6
 50 51  1  0
 51 52  3  0
 49 53  1  0
 53 54  2  0
 53 55  1  0
 45 41  1  0
 21 17  1  0
M  END
$$$$

     RDKit          2D

 55 56  0  0  0  0  0  0  0  0999 V2000
   -2.4876  -12.5103    0.0000 N   0  0  0  0  0  0  0  0  0  0  0  0
   -1.1173  -13.1204    0.0000 C   0  0  0  0  0  0  0  0  0  0  0  0
   -0.9605  -14.6122    0.0000 C   0  0  0  0  0  0  0  0  0  0  0  0
   -2.1741  -15.4938    0.0000 C   0  0  0  0  0  0  0  0  0  0  0  0
   -2.0173  -16.9856    0.0000 C   0  0  0  0  0  0  0  0  0  0  0  0
   -3.5444  -14.8837    0.0000 C   0  0  0  0  0  0  0  0  0  0  0  0
    0.0962  -12.2387    0.0000 C   0  0  0  0  0  0  0  0  0  0  0  0
    1.4665  -12.8488    0.0000 O   0  0  0  0  0  0  0  0  0  0  0  0
   -0.0606  -10.7469    0.0000 N   0  0  0  0  0  0  0  0  0  0  0  0
    1.1529   -9.8652    0.0000 C   0  0  0  0  0  0  0  0  0  0  0  0
    2.5233  -10.4753    0.0000 C   0  0  0  0  0  0  0  0  0  0  0  0
    3.7368   -9.5937    0.0000 C   0  0  0  0  0  0  0  0  0  0  0  0
    3.5800   -8.1019    0.0000 C   0  0  0  0  0  0  0  0  0  0  0  0
    5.1071  -10.2038    0.0000 C   0  0  0  0  0  0  0  0  0  0  0  0
    0.9961   -8.3735    0.0000 C   0  0  0  0  0  0  0  0  0  0  0  0
    2.2097   -7.4918    0.0000 O   0  0  0  0  0  0  0  0  0  0  0  0
   -0.3742   -7.7634    0.0000 N   0  0  0  0  0  0  0  0  0  0  0  0
   -1.6732   -8.5134    0.0000 C   0  0  0  0  0  0  0  0  0  0  0  0
   -2.7879   -7.5097    0.0000 C   0  0  0  0  0  0  0  0  0  0  0  0
   -2.1778   -6.1393    0.0000 C   0  0  0  0  0  0  0  0  0  0  0  0
   -0.6860   -6.2961    0.0000 C   0  0  0  0  0  0  0  0  0  0  0  0
    0.3177   -5.1814    0.0000 C   0  0  0  0  0  0  0  0  0  0  0  0
    1.7849   -5.4933    0.0000 O   0  0  0  0  0  0  0  0  0  0  0  0
   -0.1459   -3.7548    0.0000 N   0  0  0  0  0  0  0  0  0  0  0  0
    0.8578   -2.6401    0.0000 C   0  0  0  0  0  0  0  0  0  0  0  0
   -1.6131   -3.4430    0.0000 C   0  0  0  0  0  0  0  0  0  0  0  0
   -2.6168   -4.5577    0.0000 C   0  0  0  0  0  0  0  0  0  0  0  0
   -4.0840   -4.2458    0.0000 C   0  0  0  0  0  0  0  0  0  0  0  0
   -5.0877   -5.3605    0.0000 C   0  0  0  0  0  0  0  0  0  0  0  0
   -4.5475   -2.8192    0.0000 C   0  0  0  0  0  0  0  0  0  0  0  0
   -2.0766   -2.0164    0.0000 C   0  0  0  0  0  0  0  0  0  0  0  0
   -3.5438   -1.7045    0.0000 O   0  0  0  0  0  0  0  0  0  0  0  0
   -1.0729   -0.9017    0.0000 N   0  0  0  0  0  0  0  0  0  0  0  0
   -1.5364    0.5249    0.0000 C   0  0  0  0  0  0  0  0  0  0  0  0
   -0.5328    1.6396    0.0000 C   0  0  0  0  0  0  0  0  0  0  0  0
    0.9345    1.3278    0.0000 C   0  0  0  0  0  0  0  0  0  0  0  0
    1.9382    2.4425    0.0000 C   0  0  0  0  0  0  0  0  0  0  0  0
    1.3980   -0.0988    0.0000 C   0  0  0  0  0  0  0  0  0  0  0  0
   -3.0037    0.8368    0.0000 C   0  0  0  0  0  0  0  0  0  0  0  0
   -4.0074   -0.2779    0.0000 O   0  0  0  0  0  0  0  0  0  0  0  0
   -3.4672    2.2634    0.0000 N   0  0  0  0  0  0  0  0  0  0  0  0
   -2.5855    3.4769    0.0000 C   0  0  0  0  0  0  0  0  0  0  0  0
   -3.4672    4.6904    0.0000 C   0  0  0  0  0  0  0  0  0  0  0  0
   -4.8938    4.2269    0.0000 C   0  0  0  0  0  0  0  0  0  0  0  0
   -4.8938    2.7269    0.0000 C   0  0  0  0  0  0  0  0  0  0  0  0
   -6.1073    1.8452    0.0000 C   0  0  0  0  0  0  0  0  0  0  0  0
   -5.9505    0.3534    0.0000 O   0  0  0  0  0  0  0  0  0  0  0  0
   -7.4776    2.4553    0.0000 N   0  0  0  0  0  0  0  0  0  0  0  0
   -8.6911    1.5737    0.0000 C   0  0  0  0  0  0  0  0  0  0  0  0
  -10.0615    2.1838    0.0000 C   0  0  0  0  0  0  0  0  0  0  0  0
  -11.2750    1.3021    0.0000 C   0  0  0  0  0  0  0  0  0  0  0  0
  -12.4885    0.4204    0.0000 C   0  0  0  0  0  0  0  0  0  0  0  0
   -8.5344    0.0819    0.0000 C   0  0  0  0  0  0  0  0  0  0  0  0
   -9.7479   -0.7998    0.0000 O   0  0  0  0  0  0  0  0  0  0  0  0
   -7.1640   -0.5282    0.0000 O   0  0  0  0  0  0  0  0  0  0  0  0
  2  1  1  1
  2  3  1  0
  3  4  1  0
  4  5  1  0
  4  6  1  0
  2  7  1  0
  7  8  2  0
  7  9  1  0
  9 10  1  0
 10 11  1  1
 11 12  1  0
 12 13  1  0
 12 14  1  0
 10 15  1  0
 15 16  2  0
 15 17  1  0
 17 18  1  0
 18 19  1  0
 19 20  1  0
 20 21  1  0
 21 22  1  1
 22 23  2  0
 22 24  1  0
 24 25  1  0
 24 26  1  0
 26 27  1  6
 27 28  1  0
 28 29  1  0
 28 30  1  0
 26 31  1  0
 31 32  2  0
 31 33  1  0
 33 34  1  0
 34 35  1  1
 35 36  1  0
 36 37  1  0
 36 38  1  0
 34 39  1  0
 39 40  2  0
 39 41  1  0
 41 42  1  0
 42 43  1  0
 43 44  1  0
 44 45  1  0
 45 46  1  6
 46 47  2  0
 46 48  1  0
 48 49  1  0
 49 50  1  6
 50 51  1  0
 51 52  3  0
 49 53  1  0
 53 54  2  0
 53 55  1  0
 45 41  1  0
 21 17  1  0
M  END
$$$$

     RDKit          2D

 56 57  0  0  0  0  0  0  0  0999 V2000
   -2.4876  -12.5103    0.0000 N   0  0  0  0  0  0  0  0  0  0  0  0
   -3.7012  -13.3920    0.0000 C   0  0  0  0  0  0  0  0  0  0  0  0
   -1.1173  -13.1204    0.0000 C   0  0  0  0  0  0  0  0  0  0  0  0
   -0.9605  -14.6122    0.0000 C   0  0  0  0  0  0  0  0  0  0  0  0
   -2.1741  -15.4938    0.0000 C   0  0  0  0  0  0  0  0  0  0  0  0
   -2.0173  -16.9856    0.0000 C   0  0  0  0  0  0  0  0  0  0  0  0
   -3.5444  -14.8837    0.0000 C   0  0  0  0  0  0  0  0  0  0  0  0
    0.0962  -12.2387    0.0000 C   0  0  0  0  0  0  0  0  0  0  0  0
    1.4665  -12.8488    0.0000 O   0  0  0  0  0  0  0  0  0  0  0  0
   -0.0606  -10.7469    0.0000 N   0  0  0  0  0  0  0  0  0  0  0  0
    1.1529   -9.8652    0.0000 C   0  0  0  0  0  0  0  0  0  0  0  0
    2.5233  -10.4753    0.0000 C   0  0  0  0  0  0  0  0  0  0  0  0
    3.7368   -9.5937    0.0000 C   0  0  0  0  0  0  0  0  0  0  0  0
    5.1071  -10.2038    0.0000 C   0  0  0  0  0  0  0  0  0  0  0  0
    3.5800   -8.1019    0.0000 C   0  0  0  0  0  0  0  0  0  0  0  0
    0.9961   -8.3735    0.0000 C   0  0  0  0  0  0  0  0  0  0  0  0
    2.2097   -7.4918    0.0000 O   0  0  0  0  0  0  0  0  0  0  0  0
   -0.3742   -7.7634    0.0000 N   0  0  0  0  0  0  0  0  0  0  0  0
   -1.6732   -8.5134    0.0000 C   0  0  0  0  0  0  0  0  0  0  0  0
   -2.7879   -7.5097    0.0000 C   0  0  0  0  0  0  0  0  0  0  0  0
   -2.1778   -6.1393    0.0000 C   0  0  0  0  0  0  0  0  0  0  0  0
   -0.6860   -6.2961    0.0000 C   0  0  0  0  0  0  0  0  0  0  0  0
    0.3177   -5.1814    0.0000 C   0  0  0  0  0  0  0  0  0  0  0  0
    1.7849   -5.4933    0.0000 O   0  0  0  0  0  0  0  0  0  0  0  0
   -0.1459   -3.7548    0.0000 N   0  0  0  0  0  0  0  0  0  0  0  0
    0.8578   -2.6401    0.0000 C   0  0  0  0  0  0  0  0  0  0  0  0
   -1.6131   -3.4430    0.0000 C   0  0  0  0  0  0  0  0  0  0  0  0
   -2.6168   -4.5577    0.0000 C   0  0  0  0  0  0  0  0  0  0  0  0
   -4.0840   -4.2458    0.0000 C   0  0  0  0  0  0  0  0  0  0  0  0
   -5.0877   -5.3605    0.0000 C   0  0  0  0  0  0  0  0  0  0  0  0
   -4.5475   -2.8192    0.0000 C   0  0  0  0  0  0  0  0  0  0  0  0
   -2.0766   -2.0164    0.0000 C   0  0  0  0  0  0  0  0  0  0  0  0
   -3.5438   -1.7045    0.0000 O   0  0  0  0  0  0  0  0  0  0  0  0
   -1.0729   -0.9017    0.0000 N   0  0  0  0  0  0  0  0  0  0  0  0
   -1.5364    0.5249    0.0000 C   0  0  0  0  0  0  0  0  0  0  0  0
   -0.5328    1.6396    0.0000 C   0  0  0  0  0  0  0  0  0  0  0  0
    0.9345    1.3278    0.0000 C   0  0  0  0  0  0  0  0  0  0  0  0
    1.9382    2.4425    0.0000 C   0  0  0  0  0  0  0  0  0  0  0  0
    1.3980   -0.0988    0.0000 C   0  0  0  0  0  0  0  0  0  0  0  0
   -3.0037    0.8368    0.0000 C   0  0  0  0  0  0  0  0  0  0  0  0
   -4.0074   -0.2779    0.0000 O   0  0  0  0  0  0  0  0  0  0  0  0
   -3.4672    2.2634    0.0000 N   0  0  0  0  0  0  0  0  0  0  0  0
   -2.5855    3.4769    0.0000 C   0  0  0  0  0  0  0  0  0  0  0  0
   -3.4672    4.6904    0.0000 C   0  0  0  0  0  0  0  0  0  0  0  0
   -4.8938    4.2269    0.0000 C   0  0  0  0  0  0  0  0  0  0  0  0
   -4.8938    2.7269    0.0000 C   0  0  0  0  0  0  0  0  0  0  0  0
   -6.1073    1.8452    0.0000 C   0  0  0  0  0  0  0  0  0  0  0  0
   -5.9505    0.3534    0.0000 O   0  0  0  0  0  0  0  0  0  0  0  0
   -7.4776    2.4553    0.0000 N   0  0  0  0  0  0  0  0  0  0  0  0
   -8.6911    1.5737    0.0000 C   0  0  0  0  0  0  0  0  0  0  0  0
  -10.0615    2.1838    0.0000 C   0  0  0  0  0  0  0  0  0  0  0  0
  -11.2750    1.3021    0.0000 C   0  0  0  0  0  0  0  0  0  0  0  0
  -12.4885    0.4204    0.0000 C   0  0  0  0  0  0  0  0  0  0  0  0
   -8.5344    0.0819    0.0000 C   0  0  0  0  0  0  0  0  0  0  0  0
   -9.7479   -0.7998    0.0000 O   0  0  0  0  0  0  0  0  0  0  0  0
   -7.1640   -0.5282    0.0000 O   0  0  0  0  0  0  0  0  0  0  0  0
  1  2  1  0
  1  3  1  0
  3  4  1  6
  4  5  1  0
  5  6  1  0
  5  7  1  0
  3  8  1  0
  8  9  2  0
  8 10  1  0
 10 11  1  0
 11 12  1  1
 12 13  1  0
 13 14  1  0
 13 15  1  0
 11 16  1  0
 16 17  2  0
 16 18  1  0
 18 19  1  0
 19 20  1  0
 20 21  1  0
 21 22  1  0
 22 23  1  1
 23 24  2  0
 23 25  1  0
 25 26  1  0
 25 27  1  0
 27 28  1  6
 28 29  1  0
 29 30  1  0
 29 31  1  0
 27 32  1  0
 32 33  2  0
 32 34  1  0
 34 35  1  0
 35 36  1  1
 36 37  1  0
 37 38  1  0
 37 39  1  0
 35 40  1  0
 40 41  2  0
 40 42  1  0
 42 43  1  0
 43 44  1  0
 44 45  1  0
 45 46  1  0
 46 47  1  6
 47 48  2  0
 47 49  1  0
 49 50  1  0
 50 51  1  6
 51 52  1  0
 52 53  3  0
 50 54  1  0
 54 55  2  0
 54 56  1  0
 46 42  1  0
 22 18  1  0
M  END
$$$$

     RDKit          2D

 56 57  0  0  0  0  0  0  0  0999 V2000
   -2.4876  -12.5103    0.0000 N   0  0  0  0  0  0  0  0  0  0  0  0
   -3.7012  -13.3920    0.0000 C   0  0  0  0  0  0  0  0  0  0  0  0
   -1.1173  -13.1204    0.0000 C   0  0  0  0  0  0  0  0  0  0  0  0
   -0.9605  -14.6122    0.0000 C   0  0  0  0  0  0  0  0  0  0  0  0
   -2.1741  -15.4938    0.0000 C   0  0  0  0  0  0  0  0  0  0  0  0
   -2.0173  -16.9856    0.0000 C   0  0  0  0  0  0  0  0  0  0  0  0
   -3.5444  -14.8837    0.0000 C   0  0  0  0  0  0  0  0  0  0  0  0
    0.0962  -12.2387    0.0000 C   0  0  0  0  0  0  0  0  0  0  0  0
    1.4665  -12.8488    0.0000 O   0  0  0  0  0  0  0  0  0  0  0  0
   -0.0606  -10.7469    0.0000 N   0  0  0  0  0  0  0  0  0  0  0  0
    1.1529   -9.8652    0.0000 C   0  0  0  0  0  0  0  0  0  0  0  0
    2.5233  -10.4753    0.0000 C   0  0  0  0  0  0  0  0  0  0  0  0
    3.7368   -9.5937    0.0000 C   0  0  0  0  0  0  0  0  0  0  0  0
    5.1071  -10.2038    0.0000 C   0  0  0  0  0  0  0  0  0  0  0  0
    3.5800   -8.1019    0.0000 C   0  0  0  0  0  0  0  0  0  0  0  0
    0.9961   -8.3735    0.0000 C   0  0  0  0  0  0  0  0  0  0  0  0
    2.2097   -7.4918    0.0000 O   0  0  0  0  0  0  0  0  0  0  0  0
   -0.3742   -7.7634    0.0000 N   0  0  0  0  0  0  0  0  0  0  0  0
   -1.6732   -8.5134    0.0000 C   0  0  0  0  0  0  0  0  0  0  0  0
   -2.7879   -7.5097    0.0000 C   0  0  0  0  0  0  0  0  0  0  0  0
   -2.1778   -6.1393    0.0000 C   0  0  0  0  0  0  0  0  0  0  0  0
   -0.6860   -6.2961    0.0000 C   0  0  0  0  0  0  0  0  0  0  0  0
    0.3177   -5.1814    0.0000 C   0  0  0  0  0  0  0  0  0  0  0  0
    1.7849   -5.4933    0.0000 O   0  0  0  0  0  0  0  0  0  0  0  0
   -0.1459   -3.7548    0.0000 N   0  0  0  0  0  0  0  0  0  0  0  0
    0.8578   -2.6401    0.0000 C   0  0  0  0  0  0  0  0  0  0  0  0
   -1.6131   -3.4430    0.0000 C   0  0  0  0  0  0  0  0  0  0  0  0
   -2.6168   -4.5577    0.0000 C   0  0  0  0  0  0  0  0  0  0  0  0
   -4.0840   -4.2458    0.0000 C   0  0  0  0  0  0  0  0  0  0  0  0
   -5.0877   -5.3605    0.0000 C   0  0  0  0  0  0  0  0  0  0  0  0
   -4.5475   -2.8192    0.0000 C   0  0  0  0  0  0  0  0  0  0  0  0
   -2.0766   -2.0164    0.0000 C   0  0  0  0  0  0  0  0  0  0  0  0
   -3.5438   -1.7045    0.0000 O   0  0  0  0  0  0  0  0  0  0  0  0
   -1.0729   -0.9017    0.0000 N   0  0  0  0  0  0  0  0  0  0  0  0
   -1.5364    0.5249    0.0000 C   0  0  0  0  0  0  0  0  0  0  0  0
   -0.5328    1.6396    0.0000 C   0  0  0  0  0  0  0  0  0  0  0  0
    0.9345    1.3278    0.0000 C   0  0  0  0  0  0  0  0  0  0  0  0
    1.9382    2.4425    0.0000 C   0  0  0  0  0  0  0  0  0  0  0  0
    1.3980   -0.0988    0.0000 C   0  0  0  0  0  0  0  0  0  0  0  0
   -3.0037    0.8368    0.0000 C   0  0  0  0  0  0  0  0  0  0  0  0
   -4.0074   -0.2779    0.0000 O   0  0  0  0  0  0  0  0  0  0  0  0
   -3.4672    2.2634    0.0000 N   0  0  0  0  0  0  0  0  0  0  0  0
   -2.5855    3.4769    0.0000 C   0  0  0  0  0  0  0  0  0  0  0  0
   -3.4672    4.6904    0.0000 C   0  0  0  0  0  0  0  0  0  0  0  0
   -4.8938    4.2269    0.0000 C   0  0  0  0  0  0  0  0  0  0  0  0
   -4.8938    2.7269    0.0000 C   0  0  0  0  0  0  0  0  0  0  0  0
   -6.1073    1.8452    0.0000 C   0  0  0  0  0  0  0  0  0  0  0  0
   -5.9505    0.3534    0.0000 O   0  0  0  0  0  0  0  0  0  0  0  0
   -7.4776    2.4553    0.0000 N   0  0  0  0  0  0  0  0  0  0  0  0
   -8.6911    1.5737    0.0000 C   0  0  0  0  0  0  0  0  0  0  0  0
  -10.0615    2.1838    0.0000 C   0  0  0  0  0  0  0  0  0  0  0  0
  -11.2750    1.3021    0.0000 C   0  0  0  0  0  0  0  0  0  0  0  0
  -12.4885    0.4204    0.0000 C   0  0  0  0  0  0  0  0  0  0  0  0
   -8.5344    0.0819    0.0000 C   0  0  0  0  0  0  0  0  0  0  0  0
   -9.7479   -0.7998    0.0000 O   0  0  0  0  0  0  0  0  0  0  0  0
   -7.1640   -0.5282    0.0000 O   0  0  0  0  0  0  0  0  0  0  0  0
  1  2  1  0
  1  3  1  0
  3  4  1  1
  4  5  1  0
  5  6  1  0
  5  7  1  0
  3  8  1  0
  8  9  2  0
  8 10  1  0
 10 11  1  0
 11 12  1  1
 12 13  1  0
 13 14  1  0
 13 15  1  0
 11 16  1  0
 16 17  2  0
 16 18  1  0
 18 19  1  0
 19 20  1  0
 20 21  1  0
 21 22  1  0
 22 23  1  1
 23 24  2  0
 23 25  1  0
 25 26  1  0
 25 27  1  0
 27 28  1  6
 28 29  1  0
 29 30  1  0
 29 31  1  0
 27 32  1  0
 32 33  2  0
 32 34  1  0
 34 35  1  0
 35 36  1  1
 36 37  1  0
 37 38  1  0
 37 39  1  0
 35 40  1  0
 40 41  2  0
 40 42  1  0
 42 43  1  0
 43 44  1  0
 44 45  1  0
 45 46  1  0
 46 47  1  6
 47 48  2  0
 47 49  1  0
 49 50  1  0
 50 51  1  6
 51 52  1  0
 52 53  3  0
 50 54  1  0
 54 55  2  0
 54 56  1  0
 22 18  1  0
 46 42  1  0
M  END
$$$$

     RDKit          2D

 56 57  0  0  0  0  0  0  0  0999 V2000
    8.0260   -1.2990    0.0000 N   0  0  0  0  0  0  0  0  0  0  0  0
    7.2760   -0.0000    0.0000 C   0  0  0  0  0  0  0  0  0  0  0  0
    8.0260    1.2990    0.0000 C   0  0  0  0  0  0  0  0  0  0  0  0
    9.5260    1.2990    0.0000 C   0  0  0  0  0  0  0  0  0  0  0  0
   10.2760    2.5981    0.0000 C   0  0  0  0  0  0  0  0  0  0  0  0
   10.2760    0.0000    0.0000 C   0  0  0  0  0  0  0  0  0  0  0  0
    5.7760   -0.0000    0.0000 C   0  0  0  0  0  0  0  0  0  0  0  0
    5.0260    1.2990    0.0000 O   0  0  0  0  0  0  0  0  0  0  0  0
    5.0260   -1.2990    0.0000 N   0  0  0  0  0  0  0  0  0  0  0  0
    5.7760   -2.5981    0.0000 C   0  0  0  0  0  0  0  0  0  0  0  0
    3.5260   -1.2990    0.0000 C   0  0  0  0  0  0  0  0  0  0  0  0
    2.7760   -2.5981    0.0000 C   0  0  0  0  0  0  0  0  0  0  0  0
    3.5260   -3.8971    0.0000 C   0  0  0  0  0  0  0  0  0  0  0  0
    2.7760   -5.1962    0.0000 C   0  0  0  0  0  0  0  0  0  0  0  0
    5.0260   -3.8971    0.0000 C   0  0  0  0  0  0  0  0  0  0  0  0
    2.7760   -0.0000    0.0000 C   0  0  0  0  0  0  0  0  0  0  0  0
    3.5260    1.2990    0.0000 O   0  0  0  0  0  0  0  0  0  0  0  0
    1.2760    0.0000    0.0000 N   0  0  0  0  0  0  0  0  0  0  0  0
    0.3943    1.2135    0.0000 C   0  0  0  0  0  0  0  0  0  0  0  0
   -1.0323    0.7500    0.0000 C   0  0  0  0  0  0  0  0  0  0  0  0
   -1.0323   -0.7500    0.0000 C   0  0  0  0  0  0  0  0  0  0  0  0
    0.3943   -1.2135    0.0000 C   0  0  0  0  0  0  0  0  0  0  0  0
    0.8578   -2.6401    0.0000 C   0  0  0  0  0  0  0  0  0  0  0  0
    2.2060   -3.2977    0.0000 O   0  0  0  0  0  0  0  0  0  0  0  0
   -0.1459   -3.7548    0.0000 N   0  0  0  0  0  0  0  0  0  0  0  0
    0.3177   -5.1814    0.0000 C   0  0  0  0  0  0  0  0  0  0  0  0
   -1.6131   -3.4430    0.0000 C   0  0  0  0  0  0  0  0  0  0  0  0
   -2.6168   -4.5577    0.0000 C   0  0  0  0  0  0  0  0  0  0  0  0
   -4.0840   -4.2458    0.0000 C   0  0  0  0  0  0  0  0  0  0  0  0
   -5.0877   -5.3605    0.0000 C   0  0  0  0  0  0  0  0  0  0  0  0
   -4.5475   -2.8192    0.0000 C   0  0  0  0  0  0  0  0  0  0  0  0
   -2.0766   -2.0164    0.0000 C   0  0  0  0  0  0  0  0  0  0  0  0
   -1.7024   -1.3125    0.0000 O   0  0  0  0  0  0  0  0  0  0  0  0
   -3.5438   -1.7045    0.0000 N   0  0  0  0  0  0  0  0  0  0  0  0
   -4.0074   -0.2779    0.0000 C   0  0  0  0  0  0  0  0  0  0  0  0
   -5.4746    0.0339    0.0000 C   0  0  0  0  0  0  0  0  0  0  0  0
   -5.9381    1.4605    0.0000 C   0  0  0  0  0  0  0  0  0  0  0  0
   -7.4053    1.7724    0.0000 C   0  0  0  0  0  0  0  0  0  0  0  0
   -5.2340    2.7850    0.0000 C   0  0  0  0  0  0  0  0  0  0  0  0
   -3.0037    0.8368    0.0000 C   0  0  0  0  0  0  0  0  0  0  0  0
   -1.5046    0.8892    0.0000 O   0  0  0  0  0  0  0  0  0  0  0  0
   -3.4672    2.2634    0.0000 N   0  0  0  0  0  0  0  0  0  0  0  0
   -4.8938    2.7269    0.0000 C   0  0  0  0  0  0  0  0  0  0  0  0
   -4.8938    4.2269    0.0000 C   0  0  0  0  0  0  0  0  0  0  0  0
   -3.4672    4.6904    0.0000 C   0  0  0  0  0  0  0  0  0  0  0  0
   -2.5855    3.4769    0.0000 C   0  0  0  0  0  0  0  0  0  0  0  0
   -1.0855    3.4769    0.0000 C   0  0  0  0  0  0  0  0  0  0  0  0
   -0.3355    2.1779    0.0000 O   0  0  0  0  0  0  0  0  0  0  0  0
   -0.3355    4.7759    0.0000 N   0  0  0  0  0  0  0  0  0  0  0  0
    1.1645    4.7759    0.0000 C   0  0  0  0  0  0  0  0  0  0  0  0
    1.9145    6.0750    0.0000 C   0  0  0  0  0  0  0  0  0  0  0  0
    3.4145    6.0750    0.0000 C   0  0  0  0  0  0  0  0  0  0  0  0
    4.9145    6.0750    0.0000 C   0  0  0  0  0  0  0  0  0  0  0  0
    1.9145    3.4769    0.0000 C   0  0  0  0  0  0  0  0  0  0  0  0
    1.1645    2.1779    0.0000 O   0  0  0  0  0  0  0  0  0  0  0  0
    3.4145    3.4769    0.0000 O   0  0  0  0  0  0  0  0  0  0  0  0
  2  1  1  6
  2  3  1  0
  3  4  1  0
  4  5  1  0
  4  6  1  0
  2  7  1  0
  7  8  2  0
  7  9  1  0
  9 10  1  0
  9 11  1  0
 11 12  1  1
 12 13  1  0
 13 14  1  0
 13 15  1  0
 11 16  1  0
 16 17  2  0
 16 18  1  0
 18 19  1  0
 19 20  1  0
 20 21  1  0
 21 22  1  0
 22 23  1  6
 23 24  2  0
 23 25  1  0
 25 26  1  0
 25 27  1  0
 27 28  1  6
 28 29  1  0
 29 30  1  0
 29 31  1  0
 27 32  1  0
 32 33  2  0
 32 34  1  0
 34 35  1  0
 35 36  1  6
 36 37  1  0
 37 38  1  0
 37 39  1  0
 35 40  1  0
 40 41  2  0
 40 42  1  0
 42 43  1  0
 43 44  1  0
 44 45  1  0
 45 46  1  0
 46 47  1  1
 47 48  2  0
 47 49  1  0
 49 50  1  0
 50 51  1  1
 51 52  1  0
 52 53  3  0
 50 54  1  0
 54 55  2  0
 54 56  1  0
 22 18  1  0
 46 42  1  0
M  END
$$$$

     RDKit          2D

 56 57  0  0  0  0  0  0  0  0999 V2000
    8.0260   -1.2990    0.0000 N   0  0  0  0  0  0  0  0  0  0  0  0
    7.2760   -0.0000    0.0000 C   0  0  0  0  0  0  0  0  0  0  0  0
    8.0260    1.2990    0.0000 C   0  0  0  0  0  0  0  0  0  0  0  0
    9.5260    1.2990    0.0000 C   0  0  0  0  0  0  0  0  0  0  0  0
   10.2760    2.5981    0.0000 C   0  0  0  0  0  0  0  0  0  0  0  0
   10.2760    0.0000    0.0000 C   0  0  0  0  0  0  0  0  0  0  0  0
    5.7760   -0.0000    0.0000 C   0  0  0  0  0  0  0  0  0  0  0  0
    5.0260    1.2990    0.0000 O   0  0  0  0  0  0  0  0  0  0  0  0
    5.0260   -1.2990    0.0000 N   0  0  0  0  0  0  0  0  0  0  0  0
    5.7760   -2.5981    0.0000 C   0  0  0  0  0  0  0  0  0  0  0  0
    3.5260   -1.2990    0.0000 C   0  0  0  0  0  0  0  0  0  0  0  0
    2.7760   -2.5981    0.0000 C   0  0  0  0  0  0  0  0  0  0  0  0
    3.5260   -3.8971    0.0000 C   0  0  0  0  0  0  0  0  0  0  0  0
    2.7760   -5.1962    0.0000 C   0  0  0  0  0  0  0  0  0  0  0  0
    5.0260   -3.8971    0.0000 C   0  0  0  0  0  0  0  0  0  0  0  0
    2.7760   -0.0000    0.0000 C   0  0  0  0  0  0  0  0  0  0  0  0
    3.5260    1.2990    0.0000 O   0  0  0  0  0  0  0  0  0  0  0  0
    1.2760    0.0000    0.0000 N   0  0  0  0  0  0  0  0  0  0  0  0
    0.3943    1.2135    0.0000 C   0  0  0  0  0  0  0  0  0  0  0  0
   -1.0323    0.7500    0.0000 C   0  0  0  0  0  0  0  0  0  0  0  0
   -1.0323   -0.7500    0.0000 C   0  0  0  0  0  0  0  0  0  0  0  0
    0.3943   -1.2135    0.0000 C   0  0  0  0  0  0  0  0  0  0  0  0
    0.8578   -2.6401    0.0000 C   0  0  0  0  0  0  0  0  0  0  0  0
    2.2060   -3.2977    0.0000 O   0  0  0  0  0  0  0  0  0  0  0  0
   -0.1459   -3.7548    0.0000 N   0  0  0  0  0  0  0  0  0  0  0  0
    0.3177   -5.1814    0.0000 C   0  0  0  0  0  0  0  0  0  0  0  0
   -1.6131   -3.4430    0.0000 C   0  0  0  0  0  0  0  0  0  0  0  0
   -2.6168   -4.5577    0.0000 C   0  0  0  0  0  0  0  0  0  0  0  0
   -4.0840   -4.2458    0.0000 C   0  0  0  0  0  0  0  0  0  0  0  0
   -5.0877   -5.3605    0.0000 C   0  0  0  0  0  0  0  0  0  0  0  0
   -4.5475   -2.8192    0.0000 C   0  0  0  0  0  0  0  0  0  0  0  0
   -2.0766   -2.0164    0.0000 C   0  0  0  0  0  0  0  0  0  0  0  0
   -1.7024   -1.3125    0.0000 O   0  0  0  0  0  0  0  0  0  0  0  0
   -3.5438   -1.7045    0.0000 N   0  0  0  0  0  0  0  0  0  0  0  0
   -4.0074   -0.2779    0.0000 C   0  0  0  0  0  0  0  0  0  0  0  0
   -5.4746    0.0339    0.0000 C   0  0  0  0  0  0  0  0  0  0  0  0
   -5.9381    1.4605    0.0000 C   0  0  0  0  0  0  0  0  0  0  0  0
   -7.4053    1.7724    0.0000 C   0  0  0  0  0  0  0  0  0  0  0  0
   -5.2340    2.7850    0.0000 C   0  0  0  0  0  0  0  0  0  0  0  0
   -3.0037    0.8368    0.0000 C   0  0  0  0  0  0  0  0  0  0  0  0
   -1.5046    0.8892    0.0000 O   0  0  0  0  0  0  0  0  0  0  0  0
   -3.4672    2.2634    0.0000 N   0  0  0  0  0  0  0  0  0  0  0  0
   -4.8938    2.7269    0.0000 C   0  0  0  0  0  0  0  0  0  0  0  0
   -4.8938    4.2269    0.0000 C   0  0  0  0  0  0  0  0  0  0  0  0
   -3.4672    4.6904    0.0000 C   0  0  0  0  0  0  0  0  0  0  0  0
   -2.5855    3.4769    0.0000 C   0  0  0  0  0  0  0  0  0  0  0  0
   -1.0855    3.4769    0.0000 C   0  0  0  0  0  0  0  0  0  0  0  0
   -0.3355    2.1779    0.0000 O   0  0  0  0  0  0  0  0  0  0  0  0
   -0.3355    4.7759    0.0000 N   0  0  0  0  0  0  0  0  0  0  0  0
    1.1645    4.7759    0.0000 C   0  0  0  0  0  0  0  0  0  0  0  0
    1.9145    6.0750    0.0000 C   0  0  0  0  0  0  0  0  0  0  0  0
    3.4145    6.0750    0.0000 C   0  0  0  0  0  0  0  0  0  0  0  0
    4.9145    6.0750    0.0000 C   0  0  0  0  0  0  0  0  0  0  0  0
    1.9145    3.4769    0.0000 C   0  0  0  0  0  0  0  0  0  0  0  0
    1.1645    2.1779    0.0000 O   0  0  0  0  0  0  0  0  0  0  0  0
    3.4145    3.4769    0.0000 O   0  0  0  0  0  0  0  0  0  0  0  0
  2  1  1  1
  2  3  1  0
  3  4  1  0
  4  5  1  0
  4  6  1  0
  2  7  1  0
  7  8  2  0
  7  9  1  0
  9 10  1  0
  9 11  1  0
 11 12  1  1
 12 13  1  0
 13 14  1  0
 13 15  1  0
 11 16  1  0
 16 17  2  0
 16 18  1  0
 18 19  1  0
 19 20  1  0
 20 21  1  0
 21 22  1  0
 22 23  1  6
 23 24  2  0
 23 25  1  0
 25 26  1  0
 25 27  1  0
 27 28  1  6
 28 29  1  0
 29 30  1  0
 29 31  1  0
 27 32  1  0
 32 33  2  0
 32 34  1  0
 34 35  1  0
 35 36  1  6
 36 37  1  0
 37 38  1  0
 37 39  1  0
 35 40  1  0
 40 41  2  0
 40 42  1  0
 42 43  1  0
 43 44  1  0
 44 45  1  0
 45 46  1  0
 46 47  1  1
 47 48  2  0
 47 49  1  0
 49 50  1  0
 50 51  1  1
 51 52  1  0
 52 53  3  0
 50 54  1  0
 54 55  2  0
 54 56  1  0
 22 18  1  0
 46 42  1  0
M  END
$$$$

     RDKit          2D

 40 40  0  0  0  0  0  0  0  0999 V2000
    2.7760    7.7942    0.0000 N   0  0  0  0  0  0  0  0  0  0  0  0
    1.2760    7.7942    0.0000 C   0  0  0  0  0  0  0  0  0  0  0  0
    0.5260    9.0933    0.0000 C   0  0  0  0  0  0  0  0  0  0  0  0
    1.2760   10.3923    0.0000 C   0  0  0  0  0  0  0  0  0  0  0  0
    0.5260   11.6913    0.0000 C   0  0  0  0  0  0  0  0  0  0  0  0
    2.7760   10.3923    0.0000 C   0  0  0  0  0  0  0  0  0  0  0  0
    0.5260    6.4952    0.0000 C   0  0  0  0  0  0  0  0  0  0  0  0
   -0.9740    6.4952    0.0000 O   0  0  0  0  0  0  0  0  0  0  0  0
    1.2760    5.1962    0.0000 N   0  0  0  0  0  0  0  0  0  0  0  0
    0.5260    3.8971    0.0000 C   0  0  0  0  0  0  0  0  0  0  0  0
   -0.9740    3.8971    0.0000 C   0  0  0  0  0  0  0  0  0  0  0  0
   -1.7240    2.5981    0.0000 C   0  0  0  0  0  0  0  0  0  0  0  0
   -3.2240    2.5981    0.0000 C   0  0  0  0  0  0  0  0  0  0  0  0
   -0.9740    1.2990    0.0000 C   0  0  0  0  0  0  0  0  0  0  0  0
    1.2760    2.5981    0.0000 C   0  0  0  0  0  0  0  0  0  0  0  0
    0.5260    1.2990    0.0000 O   0  0  0  0  0  0  0  0  0  0  0  0
    2.7760    2.5981    0.0000 N   0  0  0  0  0  0  0  0  0  0  0  0
    3.5260    3.8971    0.0000 C   0  0  0  0  0  0  0  0  0  0  0  0
    3.5260    1.2990    0.0000 C   0  0  0  0  0  0  0  0  0  0  0  0
    5.0260    1.2990    0.0000 C   0  0  0  0  0  0  0  0  0  0  0  0
    5.7760    2.5981    0.0000 C   0  0  0  0  0  0  0  0  0  0  0  0
    7.2760    2.5981    0.0000 C   0  0  0  0  0  0  0  0  0  0  0  0
    5.0260    3.8971    0.0000 C   0  0  0  0  0  0  0  0  0  0  0  0
    2.7760    0.0000    0.0000 C   0  0  0  0  0  0  0  0  0  0  0  0
    1.2760    0.0000    0.0000 O   0  0  0  0  0  0  0  0  0  0  0  0
    3.5260   -1.2990    0.0000 N   0  0  0  0  0  0  0  0  0  0  0  0
    5.0178   -1.4558    0.0000 C   0  0  0  0  0  0  0  0  0  0  0  0
    5.3296   -2.9231    0.0000 C   0  0  0  0  0  0  0  0  0  0  0  0
    4.0306   -3.6731    0.0000 C   0  0  0  0  0  0  0  0  0  0  0  0
    2.9159   -2.6694    0.0000 C   0  0  0  0  0  0  0  0  0  0  0  0
    1.4486   -2.9812    0.0000 C   0  0  0  0  0  0  0  0  0  0  0  0
    0.4450   -1.8665    0.0000 O   0  0  0  0  0  0  0  0  0  0  0  0
    0.9851   -4.4078    0.0000 N   0  0  0  0  0  0  0  0  0  0  0  0
   -0.4821   -4.7197    0.0000 C   0  0  0  0  0  0  0  0  0  0  0  0
   -0.9456   -6.1463    0.0000 C   0  0  0  0  0  0  0  0  0  0  0  0
   -2.4128   -6.4581    0.0000 C   0  0  0  0  0  0  0  0  0  0  0  0
   -3.8801   -6.7700    0.0000 C   0  0  0  0  0  0  0  0  0  0  0  0
   -1.4858   -3.6050    0.0000 C   0  0  0  0  0  0  0  0  0  0  0  0
   -1.0223   -2.1784    0.0000 O   0  0  0  0  0  0  0  0  0  0  0  0
   -2.9530   -3.9168    0.0000 O   0  0  0  0  0  0  0  0  0  0  0  0
  2  1  1  6
  2  3  1  0
  3  4  1  0
  4  5  1  0
  4  6  1  0
  2  7  1  0
  7  8  2  0
  7  9  1  0
  9 10  1  0
 10 11  1  6
 11 12  1  0
 12 13  1  0
 12 14  1  0
 10 15  1  0
 15 16  2  0
 15 17  1  0
 17 18  1  0
 17 19  1  0
 19 20  1  1
 20 21  1  0
 21 22  1  0
 21 23  1  0
 19 24  1  0
 24 25  2  0
 24 26  1  0
 26 27  1  0
 27 28  1  0
 28 29  1  0
 29 30  1  0
 30 31  1  1
 31 32  2  0
 31 33  1  0
 33 34  1  0
 34 35  1  1
 35 36  1  0
 36 37  3  0
 34 38  1  0
 38 39  2  0
 38 40  1  0
 30 26  1  0
M  END
$$$$

     RDKit          2D

 40 40  0  0  0  0  0  0  0  0999 V2000
    2.7760    7.7942    0.0000 N   0  0  0  0  0  0  0  0  0  0  0  0
    1.2760    7.7942    0.0000 C   0  0  0  0  0  0  0  0  0  0  0  0
    0.5260    9.0933    0.0000 C   0  0  0  0  0  0  0  0  0  0  0  0
    1.2760   10.3923    0.0000 C   0  0  0  0  0  0  0  0  0  0  0  0
    0.5260   11.6913    0.0000 C   0  0  0  0  0  0  0  0  0  0  0  0
    2.7760   10.3923    0.0000 C   0  0  0  0  0  0  0  0  0  0  0  0
    0.5260    6.4952    0.0000 C   0  0  0  0  0  0  0  0  0  0  0  0
   -0.9740    6.4952    0.0000 O   0  0  0  0  0  0  0  0  0  0  0  0
    1.2760    5.1962    0.0000 N   0  0  0  0  0  0  0  0  0  0  0  0
    0.5260    3.8971    0.0000 C   0  0  0  0  0  0  0  0  0  0  0  0
   -0.9740    3.8971    0.0000 C   0  0  0  0  0  0  0  0  0  0  0  0
   -1.7240    2.5981    0.0000 C   0  0  0  0  0  0  0  0  0  0  0  0
   -3.2240    2.5981    0.0000 C   0  0  0  0  0  0  0  0  0  0  0  0
   -0.9740    1.2990    0.0000 C   0  0  0  0  0  0  0  0  0  0  0  0
    1.2760    2.5981    0.0000 C   0  0  0  0  0  0  0  0  0  0  0  0
    0.5260    1.2990    0.0000 O   0  0  0  0  0  0  0  0  0  0  0  0
    2.7760    2.5981    0.0000 N   0  0  0  0  0  0  0  0  0  0  0  0
    3.5260    3.8971    0.0000 C   0  0  0  0  0  0  0  0  0  0  0  0
    3.5260    1.2990    0.0000 C   0  0  0  0  0  0  0  0  0  0  0  0
    5.0260    1.2990    0.0000 C   0  0  0  0  0  0  0  0  0  0  0  0
    5.7760    2.5981    0.0000 C   0  0  0  0  0  0  0  0  0  0  0  0
    7.2760    2.5981    0.0000 C   0  0  0  0  0  0  0  0  0  0  0  0
    5.0260    3.8971    0.0000 C   0  0  0  0  0  0  0  0  0  0  0  0
    2.7760    0.0000    0.0000 C   0  0  0  0  0  0  0  0  0  0  0  0
    1.2760    0.0000    0.0000 O   0  0  0  0  0  0  0  0  0  0  0  0
    3.5260   -1.2990    0.0000 N   0  0  0  0  0  0  0  0  0  0  0  0
    5.0178   -1.4558    0.0000 C   0  0  0  0  0  0  0  0  0  0  0  0
    5.3296   -2.9231    0.0000 C   0  0  0  0  0  0  0  0  0  0  0  0
    4.0306   -3.6731    0.0000 C   0  0  0  0  0  0  0  0  0  0  0  0
    2.9159   -2.6694    0.0000 C   0  0  0  0  0  0  0  0  0  0  0  0
    1.4486   -2.9812    0.0000 C   0  0  0  0  0  0  0  0  0  0  0  0
    0.4450   -1.8665    0.0000 O   0  0  0  0  0  0  0  0  0  0  0  0
    0.9851   -4.4078    0.0000 N   0  0  0  0  0  0  0  0  0  0  0  0
   -0.4821   -4.7197    0.0000 C   0  0  0  0  0  0  0  0  0  0  0  0
   -0.9456   -6.1463    0.0000 C   0  0  0  0  0  0  0  0  0  0  0  0
   -2.4128   -6.4581    0.0000 C   0  0  0  0  0  0  0  0  0  0  0  0
   -3.8801   -6.7700    0.0000 C   0  0  0  0  0  0  0  0  0  0  0  0
   -1.4858   -3.6050    0.0000 C   0  0  0  0  0  0  0  0  0  0  0  0
   -1.0223   -2.1784    0.0000 O   0  0  0  0  0  0  0  0  0  0  0  0
   -2.9530   -3.9168    0.0000 O   0  0  0  0  0  0  0  0  0  0  0  0
  2  1  1  1
  2  3  1  0
  3  4  1  0
  4  5  1  0
  4  6  1  0
  2  7  1  0
  7  8  2  0
  7  9  1  0
  9 10  1  0
 10 11  1  6
 11 12  1  0
 12 13  1  0
 12 14  1  0
 10 15  1  0
 15 16  2  0
 15 17  1  0
 17 18  1  0
 17 19  1  0
 19 20  1  1
 20 21  1  0
 21 22  1  0
 21 23  1  0
 19 24  1  0
 24 25  2  0
 24 26  1  0
 26 27  1  0
 27 28  1  0
 28 29  1  0
 29 30  1  0
 30 31  1  1
 31 32  2  0
 31 33  1  0
 33 34  1  0
 34 35  1  1
 35 36  1  0
 36 37  3  0
 34 38  1  0
 38 39  2  0
 38 40  1  0
 30 26  1  0
M  END
$$$$

     RDKit          2D

 39 39  0  0  0  0  0  0  0  0999 V2000
    2.7760    7.7942    0.0000 N   0  0  0  0  0  0  0  0  0  0  0  0
    1.2760    7.7942    0.0000 C   0  0  0  0  0  0  0  0  0  0  0  0
    0.5260    9.0933    0.0000 C   0  0  0  0  0  0  0  0  0  0  0  0
    1.2760   10.3923    0.0000 C   0  0  0  0  0  0  0  0  0  0  0  0
   -0.9740    9.0933    0.0000 C   0  0  0  0  0  0  0  0  0  0  0  0
    0.5260    6.4952    0.0000 C   0  0  0  0  0  0  0  0  0  0  0  0
   -0.9740    6.4952    0.0000 O   0  0  0  0  0  0  0  0  0  0  0  0
    1.2760    5.1962    0.0000 N   0  0  0  0  0  0  0  0  0  0  0  0
    0.5260    3.8971    0.0000 C   0  0  0  0  0  0  0  0  0  0  0  0
   -0.9740    3.8971    0.0000 C   0  0  0  0  0  0  0  0  0  0  0  0
   -1.7240    2.5981    0.0000 C   0  0  0  0  0  0  0  0  0  0  0  0
   -3.2240    2.5981    0.0000 C   0  0  0  0  0  0  0  0  0  0  0  0
   -0.9740    1.2990    0.0000 C   0  0  0  0  0  0  0  0  0  0  0  0
    1.2760    2.5981    0.0000 C   0  0  0  0  0  0  0  0  0  0  0  0
    0.5260    1.2990    0.0000 O   0  0  0  0  0  0  0  0  0  0  0  0
    2.7760    2.5981    0.0000 N   0  0  0  0  0  0  0  0  0  0  0  0
    3.5260    3.8971    0.0000 C   0  0  0  0  0  0  0  0  0  0  0  0
    3.5260    1.2990    0.0000 C   0  0  0  0  0  0  0  0  0  0  0  0
    5.0260    1.2990    0.0000 C   0  0  0  0  0  0  0  0  0  0  0  0
    5.7760    2.5981    0.0000 C   0  0  0  0  0  0  0  0  0  0  0  0
    7.2760    2.5981    0.0000 C   0  0  0  0  0  0  0  0  0  0  0  0
    5.0260    3.8971    0.0000 C   0  0  0  0  0  0  0  0  0  0  0  0
    2.7760    0.0000    0.0000 C   0  0  0  0  0  0  0  0  0  0  0  0
    1.2760    0.0000    0.0000 O   0  0  0  0  0  0  0  0  0  0  0  0
    3.5260   -1.2990    0.0000 N   0  0  0  0  0  0  0  0  0  0  0  0
    5.0178   -1.4558    0.0000 C   0  0  0  0  0  0  0  0  0  0  0  0
    5.3296   -2.9231    0.0000 C   0  0  0  0  0  0  0  0  0  0  0  0
    4.0306   -3.6731    0.0000 C   0  0  0  0  0  0  0  0  0  0  0  0
    2.9159   -2.6694    0.0000 C   0  0  0  0  0  0  0  0  0  0  0  0
    1.4486   -2.9812    0.0000 C   0  0  0  0  0  0  0  0  0  0  0  0
    0.4450   -1.8665    0.0000 O   0  0  0  0  0  0  0  0  0  0  0  0
    0.9851   -4.4078    0.0000 N   0  0  0  0  0  0  0  0  0  0  0  0
   -0.4821   -4.7197    0.0000 C   0  0  0  0  0  0  0  0  0  0  0  0
   -0.9456   -6.1463    0.0000 C   0  0  0  0  0  0  0  0  0  0  0  0
   -2.4128   -6.4581    0.0000 C   0  0  0  0  0  0  0  0  0  0  0  0
   -3.8801   -6.7700    0.0000 C   0  0  0  0  0  0  0  0  0  0  0  0
   -1.4858   -3.6050    0.0000 C   0  0  0  0  0  0  0  0  0  0  0  0
   -1.0223   -2.1784    0.0000 O   0  0  0  0  0  0  0  0  0  0  0  0
   -2.9530   -3.9168    0.0000 O   0  0  0  0  0  0  0  0  0  0  0  0
  2  1  1  6
  2  3  1  0
  3  4  1  0
  3  5  1  0
  2  6  1  0
  6  7  2  0
  6  8  1  0
  8  9  1  0
  9 10  1  6
 10 11  1  0
 11 12  1  0
 11 13  1  0
  9 14  1  0
 14 15  2  0
 14 16  1  0
 16 17  1  0
 16 18  1  0
 18 19  1  1
 19 20  1  0
 20 21  1  0
 20 22  1  0
 18 23  1  0
 23 24  2  0
 23 25  1  0
 25 26  1  0
 26 27  1  0
 27 28  1  0
 28 29  1  0
 29 30  1  1
 30 31  2  0
 30 32  1  0
 32 33  1  0
 33 34  1  1
 34 35  1  0
 35 36  3  0
 33 37  1  0
 37 38  2  0
 37 39  1  0
 29 25  1  0
M  END
$$$$

     RDKit          2D

 39 39  0  0  0  0  0  0  0  0999 V2000
    2.7760    7.7942    0.0000 N   0  0  0  0  0  0  0  0  0  0  0  0
    1.2760    7.7942    0.0000 C   0  0  0  0  0  0  0  0  0  0  0  0
    0.5260    9.0933    0.0000 C   0  0  0  0  0  0  0  0  0  0  0  0
    1.2760   10.3923    0.0000 C   0  0  0  0  0  0  0  0  0  0  0  0
   -0.9740    9.0933    0.0000 C   0  0  0  0  0  0  0  0  0  0  0  0
    0.5260    6.4952    0.0000 C   0  0  0  0  0  0  0  0  0  0  0  0
   -0.9740    6.4952    0.0000 O   0  0  0  0  0  0  0  0  0  0  0  0
    1.2760    5.1962    0.0000 N   0  0  0  0  0  0  0  0  0  0  0  0
    0.5260    3.8971    0.0000 C   0  0  0  0  0  0  0  0  0  0  0  0
   -0.9740    3.8971    0.0000 C   0  0  0  0  0  0  0  0  0  0  0  0
   -1.7240    2.5981    0.0000 C   0  0  0  0  0  0  0  0  0  0  0  0
   -3.2240    2.5981    0.0000 C   0  0  0  0  0  0  0  0  0  0  0  0
   -0.9740    1.2990    0.0000 C   0  0  0  0  0  0  0  0  0  0  0  0
    1.2760    2.5981    0.0000 C   0  0  0  0  0  0  0  0  0  0  0  0
    0.5260    1.2990    0.0000 O   0  0  0  0  0  0  0  0  0  0  0  0
    2.7760    2.5981    0.0000 N   0  0  0  0  0  0  0  0  0  0  0  0
    3.5260    3.8971    0.0000 C   0  0  0  0  0  0  0  0  0  0  0  0
    3.5260    1.2990    0.0000 C   0  0  0  0  0  0  0  0  0  0  0  0
    5.0260    1.2990    0.0000 C   0  0  0  0  0  0  0  0  0  0  0  0
    5.7760    2.5981    0.0000 C   0  0  0  0  0  0  0  0  0  0  0  0
    7.2760    2.5981    0.0000 C   0  0  0  0  0  0  0  0  0  0  0  0
    5.0260    3.8971    0.0000 C   0  0  0  0  0  0  0  0  0  0  0  0
    2.7760    0.0000    0.0000 C   0  0  0  0  0  0  0  0  0  0  0  0
    1.2760    0.0000    0.0000 O   0  0  0  0  0  0  0  0  0  0  0  0
    3.5260   -1.2990    0.0000 N   0  0  0  0  0  0  0  0  0  0  0  0
    5.0178   -1.4558    0.0000 C   0  0  0  0  0  0  0  0  0  0  0  0
    5.3296   -2.9231    0.0000 C   0  0  0  0  0  0  0  0  0  0  0  0
    4.0306   -3.6731    0.0000 C   0  0  0  0  0  0  0  0  0  0  0  0
    2.9159   -2.6694    0.0000 C   0  0  0  0  0  0  0  0  0  0  0  0
    1.4486   -2.9812    0.0000 C   0  0  0  0  0  0  0  0  0  0  0  0
    0.4450   -1.8665    0.0000 O   0  0  0  0  0  0  0  0  0  0  0  0
    0.9851   -4.4078    0.0000 N   0  0  0  0  0  0  0  0  0  0  0  0
   -0.4821   -4.7197    0.0000 C   0  0  0  0  0  0  0  0  0  0  0  0
   -0.9456   -6.1463    0.0000 C   0  0  0  0  0  0  0  0  0  0  0  0
   -2.4128   -6.4581    0.0000 C   0  0  0  0  0  0  0  0  0  0  0  0
   -3.8801   -6.7700    0.0000 C   0  0  0  0  0  0  0  0  0  0  0  0
   -1.4858   -3.6050    0.0000 C   0  0  0  0  0  0  0  0  0  0  0  0
   -1.0223   -2.1784    0.0000 O   0  0  0  0  0  0  0  0  0  0  0  0
   -2.9530   -3.9168    0.0000 O   0  0  0  0  0  0  0  0  0  0  0  0
  2  1  1  1
  2  3  1  0
  3  4  1  0
  3  5  1  0
  2  6  1  0
  6  7  2  0
  6  8  1  0
  8  9  1  0
  9 10  1  6
 10 11  1  0
 11 12  1  0
 11 13  1  0
  9 14  1  0
 14 15  2  0
 14 16  1  0
 16 17  1  0
 16 18  1  0
 18 19  1  1
 19 20  1  0
 20 21  1  0
 20 22  1  0
 18 23  1  0
 23 24  2  0
 23 25  1  0
 25 26  1  0
 26 27  1  0
 27 28  1  0
 28 29  1  0
 29 30  1  1
 30 31  2  0
 30 32  1  0
 32 33  1  0
 33 34  1  1
 34 35  1  0
 35 36  3  0
 33 37  1  0
 37 38  2  0
 37 39  1  0
 29 25  1  0
M  END
$$$$

     RDKit          2D

 41 41  0  0  0  0  0  0  0  0999 V2000
    2.7760    7.7942    0.0000 N   0  0  0  0  0  0  0  0  0  0  0  0
    3.5260    9.0933    0.0000 C   0  0  0  0  0  0  0  0  0  0  0  0
    1.2760    7.7942    0.0000 C   0  0  0  0  0  0  0  0  0  0  0  0
    0.5260    9.0933    0.0000 C   0  0  0  0  0  0  0  0  0  0  0  0
    1.2760   10.3923    0.0000 C   0  0  0  0  0  0  0  0  0  0  0  0
    0.5260   11.6913    0.0000 C   0  0  0  0  0  0  0  0  0  0  0  0
    2.7760   10.3923    0.0000 C   0  0  0  0  0  0  0  0  0  0  0  0
    0.5260    6.4952    0.0000 C   0  0  0  0  0  0  0  0  0  0  0  0
   -0.9740    6.4952    0.0000 O   0  0  0  0  0  0  0  0  0  0  0  0
    1.2760    5.1962    0.0000 N   0  0  0  0  0  0  0  0  0  0  0  0
    0.5260    3.8971    0.0000 C   0  0  0  0  0  0  0  0  0  0  0  0
   -0.9740    3.8971    0.0000 C   0  0  0  0  0  0  0  0  0  0  0  0
   -1.7240    2.5981    0.0000 C   0  0  0  0  0  0  0  0  0  0  0  0
   -3.2240    2.5981    0.0000 C   0  0  0  0  0  0  0  0  0  0  0  0
   -0.9740    1.2990    0.0000 C   0  0  0  0  0  0  0  0  0  0  0  0
    1.2760    2.5981    0.0000 C   0  0  0  0  0  0  0  0  0  0  0  0
    0.5260    1.2990    0.0000 O   0  0  0  0  0  0  0  0  0  0  0  0
    2.7760    2.5981    0.0000 N   0  0  0  0  0  0  0  0  0  0  0  0
    3.5260    3.8971    0.0000 C   0  0  0  0  0  0  0  0  0  0  0  0
    3.5260    1.2990    0.0000 C   0  0  0  0  0  0  0  0  0  0  0  0
    5.0260    1.2990    0.0000 C   0  0  0  0  0  0  0  0  0  0  0  0
    5.7760    2.5981    0.0000 C   0  0  0  0  0  0  0  0  0  0  0  0
    7.2760    2.5981    0.0000 C   0  0  0  0  0  0  0  0  0  0  0  0
    5.0260    3.8971    0.0000 C   0  0  0  0  0  0  0  0  0  0  0  0
    2.7760    0.0000    0.0000 C   0  0  0  0  0  0  0  0  0  0  0  0
    1.2760    0.0000    0.0000 O   0  0  0  0  0  0  0  0  0  0  0  0
    3.5260   -1.2990    0.0000 N   0  0  0  0  0  0  0  0  0  0  0  0
    5.0178   -1.4558    0.0000 C   0  0  0  0  0  0  0  0  0  0  0  0
    5.3296   -2.9231    0.0000 C   0  0  0  0  0  0  0  0  0  0  0  0
    4.0306   -3.6731    0.0000 C   0  0  0  0  0  0  0  0  0  0  0  0
    2.9159   -2.6694    0.0000 C   0  0  0  0  0  0  0  0  0  0  0  0
    1.4486   -2.9812    0.0000 C   0  0  0  0  0  0  0  0  0  0  0  0
    0.4450   -1.8665    0.0000 O   0  0  0  0  0  0  0  0  0  0  0  0
    0.9851   -4.4078    0.0000 N   0  0  0  0  0  0  0  0  0  0  0  0
   -0.4821   -4.7197    0.0000 C   0  0  0  0  0  0  0  0  0  0  0  0
   -0.9456   -6.1463    0.0000 C   0  0  0  0  0  0  0  0  0  0  0  0
   -2.4128   -6.4581    0.0000 C   0  0  0  0  0  0  0  0  0  0  0  0
   -3.8801   -6.7700    0.0000 C   0  0  0  0  0  0  0  0  0  0  0  0
   -1.4858   -3.6050    0.0000 C   0  0  0  0  0  0  0  0  0  0  0  0
   -1.0223   -2.1784    0.0000 O   0  0  0  0  0  0  0  0  0  0  0  0
   -2.9530   -3.9168    0.0000 O   0  0  0  0  0  0  0  0  0  0  0  0
  1  2  1  0
  1  3  1  0
  3  4  1  6
  4  5  1  0
  5  6  1  0
  5  7  1  0
  3  8  1  0
  8  9  2  0
  8 10  1  0
 10 11  1  0
 11 12  1  6
 12 13  1  0
 13 14  1  0
 13 15  1  0
 11 16  1  0
 16 17  2  0
 16 18  1  0
 18 19  1  0
 18 20  1  0
 20 21  1  1
 21 22  1  0
 22 23  1  0
 22 24  1  0
 20 25  1  0
 25 26  2  0
 25 27  1  0
 27 28  1  0
 28 29  1  0
 29 30  1  0
 30 31  1  0
 31 32  1  1
 32 33  2  0
 32 34  1  0
 34 35  1  0
 35 36  1  1
 36 37  1  0
 37 38  3  0
 35 39  1  0
 39 40  2  0
 39 41  1  0
 31 27  1  0
M  END
$$$$

     RDKit          2D

 41 41  0  0  0  0  0  0  0  0999 V2000
    2.7760    7.7942    0.0000 N   0  0  0  0  0  0  0  0  0  0  0  0
    3.5260    9.0933    0.0000 C   0  0  0  0  0  0  0  0  0  0  0  0
    1.2760    7.7942    0.0000 C   0  0  0  0  0  0  0  0  0  0  0  0
    0.5260    9.0933    0.0000 C   0  0  0  0  0  0  0  0  0  0  0  0
    1.2760   10.3923    0.0000 C   0  0  0  0  0  0  0  0  0  0  0  0
    0.5260   11.6913    0.0000 C   0  0  0  0  0  0  0  0  0  0  0  0
    2.7760   10.3923    0.0000 C   0  0  0  0  0  0  0  0  0  0  0  0
    0.5260    6.4952    0.0000 C   0  0  0  0  0  0  0  0  0  0  0  0
   -0.9740    6.4952    0.0000 O   0  0  0  0  0  0  0  0  0  0  0  0
    1.2760    5.1962    0.0000 N   0  0  0  0  0  0  0  0  0  0  0  0
    0.5260    3.8971    0.0000 C   0  0  0  0  0  0  0  0  0  0  0  0
   -0.9740    3.8971    0.0000 C   0  0  0  0  0  0  0  0  0  0  0  0
   -1.7240    2.5981    0.0000 C   0  0  0  0  0  0  0  0  0  0  0  0
   -3.2240    2.5981    0.0000 C   0  0  0  0  0  0  0  0  0  0  0  0
   -0.9740    1.2990    0.0000 C   0  0  0  0  0  0  0  0  0  0  0  0
    1.2760    2.5981    0.0000 C   0  0  0  0  0  0  0  0  0  0  0  0
    0.5260    1.2990    0.0000 O   0  0  0  0  0  0  0  0  0  0  0  0
    2.7760    2.5981    0.0000 N   0  0  0  0  0  0  0  0  0  0  0  0
    3.5260    3.8971    0.0000 C   0  0  0  0  0  0  0  0  0  0  0  0
    3.5260    1.2990    0.0000 C   0  0  0  0  0  0  0  0  0  0  0  0
    5.0260    1.2990    0.0000 C   0  0  0  0  0  0  0  0  0  0  0  0
    5.7760    2.5981    0.0000 C   0  0  0  0  0  0  0  0  0  0  0  0
    7.2760    2.5981    0.0000 C   0  0  0  0  0  0  0  0  0  0  0  0
    5.0260    3.8971    0.0000 C   0  0  0  0  0  0  0  0  0  0  0  0
    2.7760    0.0000    0.0000 C   0  0  0  0  0  0  0  0  0  0  0  0
    1.2760    0.0000    0.0000 O   0  0  0  0  0  0  0  0  0  0  0  0
    3.5260   -1.2990    0.0000 N   0  0  0  0  0  0  0  0  0  0  0  0
    5.0178   -1.4558    0.0000 C   0  0  0  0  0  0  0  0  0  0  0  0
    5.3296   -2.9231    0.0000 C   0  0  0  0  0  0  0  0  0  0  0  0
    4.0306   -3.6731    0.0000 C   0  0  0  0  0  0  0  0  0  0  0  0
    2.9159   -2.6694    0.0000 C   0  0  0  0  0  0  0  0  0  0  0  0
    1.4486   -2.9812    0.0000 C   0  0  0  0  0  0  0  0  0  0  0  0
    0.4450   -1.8665    0.0000 O   0  0  0  0  0  0  0  0  0  0  0  0
    0.9851   -4.4078    0.0000 N   0  0  0  0  0  0  0  0  0  0  0  0
   -0.4821   -4.7197    0.0000 C   0  0  0  0  0  0  0  0  0  0  0  0
   -0.9456   -6.1463    0.0000 C   0  0  0  0  0  0  0  0  0  0  0  0
   -2.4128   -6.4581    0.0000 C   0  0  0  0  0  0  0  0  0  0  0  0
   -3.8801   -6.7700    0.0000 C   0  0  0  0  0  0  0  0  0  0  0  0
   -1.4858   -3.6050    0.0000 C   0  0  0  0  0  0  0  0  0  0  0  0
   -1.0223   -2.1784    0.0000 O   0  0  0  0  0  0  0  0  0  0  0  0
   -2.9530   -3.9168    0.0000 O   0  0  0  0  0  0  0  0  0  0  0  0
  1  2  1  0
  1  3  1  0
  3  4  1  1
  4  5  1  0
  5  6  1  0
  5  7  1  0
  3  8  1  0
  8  9  2  0
  8 10  1  0
 10 11  1  0
 11 12  1  6
 12 13  1  0
 13 14  1  0
 13 15  1  0
 11 16  1  0
 16 17  2  0
 16 18  1  0
 18 19  1  0
 18 20  1  0
 20 21  1  1
 21 22  1  0
 22 23  1  0
 22 24  1  0
 20 25  1  0
 25 26  2  0
 25 27  1  0
 27 28  1  0
 28 29  1  0
 29 30  1  0
 30 31  1  0
 31 32  1  1
 32 33  2  0
 32 34  1  0
 34 35  1  0
 35 36  1  1
 36 37  1  0
 37 38  3  0
 35 39  1  0
 39 40  2  0
 39 41  1  0
 31 27  1  0
M  END
$$$$

     RDKit          2D

 43 44  0  0  0  0  0  0  0  0999 V2000
    8.2500   -6.4952    0.0000 N   0  0  0  0  0  0  0  0  0  0  0  0
    7.5000   -5.1962    0.0000 C   0  0  0  0  0  0  0  0  0  0  0  0
    8.2500   -3.8971    0.0000 C   0  0  0  0  0  0  0  0  0  0  0  0
    9.7500   -3.8971    0.0000 C   0  0  0  0  0  0  0  0  0  0  0  0
   10.5000   -2.5981    0.0000 C   0  0  0  0  0  0  0  0  0  0  0  0
   12.0000   -2.5981    0.0000 C   0  0  0  0  0  0  0  0  0  0  0  0
   12.7500   -3.8971    0.0000 C   0  0  0  0  0  0  0  0  0  0  0  0
   12.0000   -5.1962    0.0000 C   0  0  0  0  0  0  0  0  0  0  0  0
   10.5000   -5.1962    0.0000 C   0  0  0  0  0  0  0  0  0  0  0  0
    6.0000   -5.1962    0.0000 C   0  0  0  0  0  0  0  0  0  0  0  0
    5.2500   -3.8971    0.0000 O   0  0  0  0  0  0  0  0  0  0  0  0
    5.2500   -6.4952    0.0000 N   0  0  0  0  0  0  0  0  0  0  0  0
    3.7500   -6.4952    0.0000 C   0  0  0  0  0  0  0  0  0  0  0  0
    3.0000   -5.1962    0.0000 C   0  0  0  0  0  0  0  0  0  0  0  0
    1.5000   -5.1962    0.0000 C   0  0  0  0  0  0  0  0  0  0  0  0
    0.7500   -3.8971    0.0000 C   0  0  0  0  0  0  0  0  0  0  0  0
    0.7500   -6.4952    0.0000 C   0  0  0  0  0  0  0  0  0  0  0  0
    3.0000   -7.7942    0.0000 C   0  0  0  0  0  0  0  0  0  0  0  0
    1.5000   -7.7942    0.0000 O   0  0  0  0  0  0  0  0  0  0  0  0
    3.7500   -9.0933    0.0000 N   0  0  0  0  0  0  0  0  0  0  0  0
    5.2500   -9.0933    0.0000 C   0  0  0  0  0  0  0  0  0  0  0  0
    3.0000  -10.3923    0.0000 C   0  0  0  0  0  0  0  0  0  0  0  0
    3.7500  -11.6913    0.0000 C   0  0  0  0  0  0  0  0  0  0  0  0
    5.2500  -11.6913    0.0000 C   0  0  0  0  0  0  0  0  0  0  0  0
    6.0000  -12.9904    0.0000 C   0  0  0  0  0  0  0  0  0  0  0  0
    6.0000  -10.3923    0.0000 C   0  0  0  0  0  0  0  0  0  0  0  0
    1.5000  -10.3923    0.0000 C   0  0  0  0  0  0  0  0  0  0  0  0
    0.7500   -9.0933    0.0000 O   0  0  0  0  0  0  0  0  0  0  0  0
    0.7500  -11.6913    0.0000 N   0  0  0  0  0  0  0  0  0  0  0  0
    1.3601  -13.0617    0.0000 C   0  0  0  0  0  0  0  0  0  0  0  0
    0.2454  -14.0654    0.0000 C   0  0  0  0  0  0  0  0  0  0  0  0
   -1.0537  -13.3154    0.0000 C   0  0  0  0  0  0  0  0  0  0  0  0
   -0.7418  -11.8481    0.0000 C   0  0  0  0  0  0  0  0  0  0  0  0
   -1.7455  -10.7334    0.0000 C   0  0  0  0  0  0  0  0  0  0  0  0
   -1.2820   -9.3068    0.0000 O   0  0  0  0  0  0  0  0  0  0  0  0
   -3.2127  -11.0453    0.0000 N   0  0  0  0  0  0  0  0  0  0  0  0
   -4.2164   -9.9306    0.0000 C   0  0  0  0  0  0  0  0  0  0  0  0
   -5.6836  -10.2424    0.0000 C   0  0  0  0  0  0  0  0  0  0  0  0
   -6.6873   -9.1277    0.0000 C   0  0  0  0  0  0  0  0  0  0  0  0
   -7.6910   -8.0130    0.0000 C   0  0  0  0  0  0  0  0  0  0  0  0
   -3.7529   -8.5040    0.0000 C   0  0  0  0  0  0  0  0  0  0  0  0
   -2.2856   -8.1921    0.0000 O   0  0  0  0  0  0  0  0  0  0  0  0
   -4.7566   -7.3893    0.0000 O   0  0  0  0  0  0  0  0  0  0  0  0
  2  1  1  6
  2  3  1  0
  3  4  1  0
  4  5  2  0
  5  6  1  0
  6  7  2  0
  7  8  1  0
  8  9  2  0
  2 10  1  0
 10 11  2  0
 10 12  1  0
 12 13  1  0
 13 14  1  6
 14 15  1  0
 15 16  1  0
 15 17  1  0
 13 18  1  0
 18 19  2  0
 18 20  1  0
 20 21  1  0
 20 22  1  0
 22 23  1  1
 23 24  1  0
 24 25  1  0
 24 26  1  0
 22 27  1  0
 27 28  2  0
 27 29  1  0
 29 30  1  0
 30 31  1  0
 31 32  1  0
 32 33  1  0
 33 34  1  1
 34 35  2  0
 34 36  1  0
 36 37  1  0
 37 38  1  1
 38 39  1  0
 39 40  3  0
 37 41  1  0
 41 42  2  0
 41 43  1  0
  9  4  1  0
 33 29  1  0
M  END
$$$$

     RDKit          2D

 43 44  0  0  0  0  0  0  0  0999 V2000
    8.2500   -6.4952    0.0000 N   0  0  0  0  0  0  0  0  0  0  0  0
    7.5000   -5.1962    0.0000 C   0  0  0  0  0  0  0  0  0  0  0  0
    8.2500   -3.8971    0.0000 C   0  0  0  0  0  0  0  0  0  0  0  0
    9.7500   -3.8971    0.0000 C   0  0  0  0  0  0  0  0  0  0  0  0
   10.5000   -2.5981    0.0000 C   0  0  0  0  0  0  0  0  0  0  0  0
   12.0000   -2.5981    0.0000 C   0  0  0  0  0  0  0  0  0  0  0  0
   12.7500   -3.8971    0.0000 C   0  0  0  0  0  0  0  0  0  0  0  0
   12.0000   -5.1962    0.0000 C   0  0  0  0  0  0  0  0  0  0  0  0
   10.5000   -5.1962    0.0000 C   0  0  0  0  0  0  0  0  0  0  0  0
    6.0000   -5.1962    0.0000 C   0  0  0  0  0  0  0  0  0  0  0  0
    5.2500   -3.8971    0.0000 O   0  0  0  0  0  0  0  0  0  0  0  0
    5.2500   -6.4952    0.0000 N   0  0  0  0  0  0  0  0  0  0  0  0
    3.7500   -6.4952    0.0000 C   0  0  0  0  0  0  0  0  0  0  0  0
    3.0000   -5.1962    0.0000 C   0  0  0  0  0  0  0  0  0  0  0  0
    1.5000   -5.1962    0.0000 C   0  0  0  0  0  0  0  0  0  0  0  0
    0.7500   -3.8971    0.0000 C   0  0  0  0  0  0  0  0  0  0  0  0
    0.7500   -6.4952    0.0000 C   0  0  0  0  0  0  0  0  0  0  0  0
    3.0000   -7.7942    0.0000 C   0  0  0  0  0  0  0  0  0  0  0  0
    1.5000   -7.7942    0.0000 O   0  0  0  0  0  0  0  0  0  0  0  0
    3.7500   -9.0933    0.0000 N   0  0  0  0  0  0  0  0  0  0  0  0
    5.2500   -9.0933    0.0000 C   0  0  0  0  0  0  0  0  0  0  0  0
    3.0000  -10.3923    0.0000 C   0  0  0  0  0  0  0  0  0  0  0  0
    3.7500  -11.6913    0.0000 C   0  0  0  0  0  0  0  0  0  0  0  0
    5.2500  -11.6913    0.0000 C   0  0  0  0  0  0  0  0  0  0  0  0
    6.0000  -12.9904    0.0000 C   0  0  0  0  0  0  0  0  0  0  0  0
    6.0000  -10.3923    0.0000 C   0  0  0  0  0  0  0  0  0  0  0  0
    1.5000  -10.3923    0.0000 C   0  0  0  0  0  0  0  0  0  0  0  0
    0.7500   -9.0933    0.0000 O   0  0  0  0  0  0  0  0  0  0  0  0
    0.7500  -11.6913    0.0000 N   0  0  0  0  0  0  0  0  0  0  0  0
    1.3601  -13.0617    0.0000 C   0  0  0  0  0  0  0  0  0  0  0  0
    0.2454  -14.0654    0.0000 C   0  0  0  0  0  0  0  0  0  0  0  0
   -1.0537  -13.3154    0.0000 C   0  0  0  0  0  0  0  0  0  0  0  0
   -0.7418  -11.8481    0.0000 C   0  0  0  0  0  0  0  0  0  0  0  0
   -1.7455  -10.7334    0.0000 C   0  0  0  0  0  0  0  0  0  0  0  0
   -1.2820   -9.3068    0.0000 O   0  0  0  0  0  0  0  0  0  0  0  0
   -3.2127  -11.0453    0.0000 N   0  0  0  0  0  0  0  0  0  0  0  0
   -4.2164   -9.9306    0.0000 C   0  0  0  0  0  0  0  0  0  0  0  0
   -5.6836  -10.2424    0.0000 C   0  0  0  0  0  0  0  0  0  0  0  0
   -6.6873   -9.1277    0.0000 C   0  0  0  0  0  0  0  0  0  0  0  0
   -7.6910   -8.0130    0.0000 C   0  0  0  0  0  0  0  0  0  0  0  0
   -3.7529   -8.5040    0.0000 C   0  0  0  0  0  0  0  0  0  0  0  0
   -2.2856   -8.1921    0.0000 O   0  0  0  0  0  0  0  0  0  0  0  0
   -4.7566   -7.3893    0.0000 O   0  0  0  0  0  0  0  0  0  0  0  0
  2  1  1  1
  2  3  1  0
  3  4  1  0
  4  5  2  0
  5  6  1  0
  6  7  2  0
  7  8  1  0
  8  9  2  0
  2 10  1  0
 10 11  2  0
 10 12  1  0
 12 13  1  0
 13 14  1  6
 14 15  1  0
 15 16  1  0
 15 17  1  0
 13 18  1  0
 18 19  2  0
 18 20  1  0
 20 21  1  0
 20 22  1  0
 22 23  1  1
 23 24  1  0
 24 25  1  0
 24 26  1  0
 22 27  1  0
 27 28  2  0
 27 29  1  0
 29 30  1  0
 30 31  1  0
 31 32  1  0
 32 33  1  0
 33 34  1  1
 34 35  2  0
 34 36  1  0
 36 37  1  0
 37 38  1  1
 38 39  1  0
 39 40  3  0
 37 41  1  0
 41 42  2  0
 41 43  1  0
  9  4  1  0
 33 29  1  0
M  END
$$$$

     RDKit          2D

 44 45  0  0  0  0  0  0  0  0999 V2000
    8.2500   -6.4952    0.0000 N   0  0  0  0  0  0  0  0  0  0  0  0
    7.5000   -7.7942    0.0000 C   0  0  0  0  0  0  0  0  0  0  0  0
    7.5000   -5.1962    0.0000 C   0  0  0  0  0  0  0  0  0  0  0  0
    8.2500   -3.8971    0.0000 C   0  0  0  0  0  0  0  0  0  0  0  0
    9.7500   -3.8971    0.0000 C   0  0  0  0  0  0  0  0  0  0  0  0
   10.5000   -2.5981    0.0000 C   0  0  0  0  0  0  0  0  0  0  0  0
   12.0000   -2.5981    0.0000 C   0  0  0  0  0  0  0  0  0  0  0  0
   12.7500   -3.8971    0.0000 C   0  0  0  0  0  0  0  0  0  0  0  0
   12.0000   -5.1962    0.0000 C   0  0  0  0  0  0  0  0  0  0  0  0
   10.5000   -5.1962    0.0000 C   0  0  0  0  0  0  0  0  0  0  0  0
    6.0000   -5.1962    0.0000 C   0  0  0  0  0  0  0  0  0  0  0  0
    5.2500   -3.8971    0.0000 O   0  0  0  0  0  0  0  0  0  0  0  0
    5.2500   -6.4952    0.0000 N   0  0  0  0  0  0  0  0  0  0  0  0
    3.7500   -6.4952    0.0000 C   0  0  0  0  0  0  0  0  0  0  0  0
    3.0000   -5.1962    0.0000 C   0  0  0  0  0  0  0  0  0  0  0  0
    1.5000   -5.1962    0.0000 C   0  0  0  0  0  0  0  0  0  0  0  0
    0.7500   -3.8971    0.0000 C   0  0  0  0  0  0  0  0  0  0  0  0
    0.7500   -6.4952    0.0000 C   0  0  0  0  0  0  0  0  0  0  0  0
    3.0000   -7.7942    0.0000 C   0  0  0  0  0  0  0  0  0  0  0  0
    1.5000   -7.7942    0.0000 O   0  0  0  0  0  0  0  0  0  0  0  0
    3.7500   -9.0933    0.0000 N   0  0  0  0  0  0  0  0  0  0  0  0
    5.2500   -9.0933    0.0000 C   0  0  0  0  0  0  0  0  0  0  0  0
    3.0000  -10.3923    0.0000 C   0  0  0  0  0  0  0  0  0  0  0  0
    3.7500  -11.6913    0.0000 C   0  0  0  0  0  0  0  0  0  0  0  0
    5.2500  -11.6913    0.0000 C   0  0  0  0  0  0  0  0  0  0  0  0
    6.0000  -12.9904    0.0000 C   0  0  0  0  0  0  0  0  0  0  0  0
    6.0000  -10.3923    0.0000 C   0  0  0  0  0  0  0  0  0  0  0  0
    1.5000  -10.3923    0.0000 C   0  0  0  0  0  0  0  0  0  0  0  0
    0.7500   -9.0933    0.0000 O   0  0  0  0  0  0  0  0  0  0  0  0
    0.7500  -11.6913    0.0000 N   0  0  0  0  0  0  0  0  0  0  0  0
    1.3601  -13.0617    0.0000 C   0  0  0  0  0  0  0  0  0  0  0  0
    0.2454  -14.0654    0.0000 C   0  0  0  0  0  0  0  0  0  0  0  0
   -1.0537  -13.3154    0.0000 C   0  0  0  0  0  0  0  0  0  0  0  0
   -0.7418  -11.8481    0.0000 C   0  0  0  0  0  0  0  0  0  0  0  0
   -1.7455  -10.7334    0.0000 C   0  0  0  0  0  0  0  0  0  0  0  0
   -1.2820   -9.3068    0.0000 O   0  0  0  0  0  0  0  0  0  0  0  0
   -3.2127  -11.0453    0.0000 N   0  0  0  0  0  0  0  0  0  0  0  0
   -4.2164   -9.9306    0.0000 C   0  0  0  0  0  0  0  0  0  0  0  0
   -5.6836  -10.2424    0.0000 C   0  0  0  0  0  0  0  0  0  0  0  0
   -6.6873   -9.1277    0.0000 C   0  0  0  0  0  0  0  0  0  0  0  0
   -7.6910   -8.0130    0.0000 C   0  0  0  0  0  0  0  0  0  0  0  0
   -3.7529   -8.5040    0.0000 C   0  0  0  0  0  0  0  0  0  0  0  0
   -2.2856   -8.1921    0.0000 O   0  0  0  0  0  0  0  0  0  0  0  0
   -4.7566   -7.3893    0.0000 O   0  0  0  0  0  0  0  0  0  0  0  0
  1  2  1  0
  1  3  1  0
  3  4  1  6
  4  5  1  0
  5  6  2  0
  6  7  1  0
  7  8  2  0
  8  9  1  0
  9 10  2  0
  3 11  1  0
 11 12  2  0
 11 13  1  0
 13 14  1  0
 14 15  1  6
 15 16  1  0
 16 17  1  0
 16 18  1  0
 14 19  1  0
 19 20  2  0
 19 21  1  0
 21 22  1  0
 21 23  1  0
 23 24  1  1
 24 25  1  0
 25 26  1  0
 25 27  1  0
 23 28  1  0
 28 29  2  0
 28 30  1  0
 30 31  1  0
 31 32  1  0
 32 33  1  0
 33 34  1  0
 34 35  1  1
 35 36  2  0
 35 37  1  0
 37 38  1  0
 38 39  1  1
 39 40  1  0
 40 41  3  0
 38 42  1  0
 42 43  2  0
 42 44  1  0
 10  5  1  0
 34 30  1  0
M  END
$$$$

     RDKit          2D

 44 45  0  0  0  0  0  0  0  0999 V2000
    8.2500   -6.4952    0.0000 N   0  0  0  0  0  0  0  0  0  0  0  0
    7.5000   -7.7942    0.0000 C   0  0  0  0  0  0  0  0  0  0  0  0
    7.5000   -5.1962    0.0000 C   0  0  0  0  0  0  0  0  0  0  0  0
    8.2500   -3.8971    0.0000 C   0  0  0  0  0  0  0  0  0  0  0  0
    9.7500   -3.8971    0.0000 C   0  0  0  0  0  0  0  0  0  0  0  0
   10.5000   -2.5981    0.0000 C   0  0  0  0  0  0  0  0  0  0  0  0
   12.0000   -2.5981    0.0000 C   0  0  0  0  0  0  0  0  0  0  0  0
   12.7500   -3.8971    0.0000 C   0  0  0  0  0  0  0  0  0  0  0  0
   12.0000   -5.1962    0.0000 C   0  0  0  0  0  0  0  0  0  0  0  0
   10.5000   -5.1962    0.0000 C   0  0  0  0  0  0  0  0  0  0  0  0
    6.0000   -5.1962    0.0000 C   0  0  0  0  0  0  0  0  0  0  0  0
    5.2500   -3.8971    0.0000 O   0  0  0  0  0  0  0  0  0  0  0  0
    5.2500   -6.4952    0.0000 N   0  0  0  0  0  0  0  0  0  0  0  0
    3.7500   -6.4952    0.0000 C   0  0  0  0  0  0  0  0  0  0  0  0
    3.0000   -5.1962    0.0000 C   0  0  0  0  0  0  0  0  0  0  0  0
    1.5000   -5.1962    0.0000 C   0  0  0  0  0  0  0  0  0  0  0  0
    0.7500   -3.8971    0.0000 C   0  0  0  0  0  0  0  0  0  0  0  0
    0.7500   -6.4952    0.0000 C   0  0  0  0  0  0  0  0  0  0  0  0
    3.0000   -7.7942    0.0000 C   0  0  0  0  0  0  0  0  0  0  0  0
    1.5000   -7.7942    0.0000 O   0  0  0  0  0  0  0  0  0  0  0  0
    3.7500   -9.0933    0.0000 N   0  0  0  0  0  0  0  0  0  0  0  0
    5.2500   -9.0933    0.0000 C   0  0  0  0  0  0  0  0  0  0  0  0
    3.0000  -10.3923    0.0000 C   0  0  0  0  0  0  0  0  0  0  0  0
    3.7500  -11.6913    0.0000 C   0  0  0  0  0  0  0  0  0  0  0  0
    5.2500  -11.6913    0.0000 C   0  0  0  0  0  0  0  0  0  0  0  0
    6.0000  -12.9904    0.0000 C   0  0  0  0  0  0  0  0  0  0  0  0
    6.0000  -10.3923    0.0000 C   0  0  0  0  0  0  0  0  0  0  0  0
    1.5000  -10.3923    0.0000 C   0  0  0  0  0  0  0  0  0  0  0  0
    0.7500   -9.0933    0.0000 O   0  0  0  0  0  0  0  0  0  0  0  0
    0.7500  -11.6913    0.0000 N   0  0  0  0  0  0  0  0  0  0  0  0
    1.3601  -13.0617    0.0000 C   0  0  0  0  0  0  0  0  0  0  0  0
    0.2454  -14.0654    0.0000 C   0  0  0  0  0  0  0  0  0  0  0  0
   -1.0537  -13.3154    0.0000 C   0  0  0  0  0  0  0  0  0  0  0  0
   -0.7418  -11.8481    0.0000 C   0  0  0  0  0  0  0  0  0  0  0  0
   -1.7455  -10.7334    0.0000 C   0  0  0  0  0  0  0  0  0  0  0  0
   -1.2820   -9.3068    0.0000 O   0  0  0  0  0  0  0  0  0  0  0  0
   -3.2127  -11.0453    0.0000 N   0  0  0  0  0  0  0  0  0  0  0  0
   -4.2164   -9.9306    0.0000 C   0  0  0  0  0  0  0  0  0  0  0  0
   -5.6836  -10.2424    0.0000 C   0  0  0  0  0  0  0  0  0  0  0  0
   -6.6873   -9.1277    0.0000 C   0  0  0  0  0  0  0  0  0  0  0  0
   -7.6910   -8.0130    0.0000 C   0  0  0  0  0  0  0  0  0  0  0  0
   -3.7529   -8.5040    0.0000 C   0  0  0  0  0  0  0  0  0  0  0  0
   -2.2856   -8.1921    0.0000 O   0  0  0  0  0  0  0  0  0  0  0  0
   -4.7566   -7.3893    0.0000 O   0  0  0  0  0  0  0  0  0  0  0  0
  1  2  1  0
  1  3  1  0
  3  4  1  1
  4  5  1  0
  5  6  2  0
  6  7  1  0
  7  8  2  0
  8  9  1  0
  9 10  2  0
  3 11  1  0
 11 12  2  0
 11 13  1  0
 13 14  1  0
 14 15  1  6
 15 16  1  0
 16 17  1  0
 16 18  1  0
 14 19  1  0
 19 20  2  0
 19 21  1  0
 21 22  1  0
 21 23  1  0
 23 24  1  1
 24 25  1  0
 25 26  1  0
 25 27  1  0
 23 28  1  0
 28 29  2  0
 28 30  1  0
 30 31  1  0
 31 32  1  0
 32 33  1  0
 33 34  1  0
 34 35  1  1
 35 36  2  0
 35 37  1  0
 37 38  1  0
 38 39  1  1
 39 40  1  0
 40 41  3  0
 38 42  1  0
 42 43  2  0
 42 44  1  0
 10  5  1  0
 34 30  1  0
M  END
$$$$

     RDKit          2D

 39 39  0  0  0  0  0  0  0  0999 V2000
    2.7760    7.7942    0.0000 N   0  0  0  0  0  0  0  0  0  0  0  0
    1.2760    7.7942    0.0000 C   0  0  0  0  0  0  0  0  0  0  0  0
    0.5260    9.0933    0.0000 C   0  0  0  0  0  0  0  0  0  0  0  0
   -0.9740    9.0933    0.0000 O   0  0  0  0  0  0  0  0  0  0  0  0
    1.2760   10.3923    0.0000 C   0  0  0  0  0  0  0  0  0  0  0  0
    0.5260    6.4952    0.0000 C   0  0  0  0  0  0  0  0  0  0  0  0
   -0.9740    6.4952    0.0000 O   0  0  0  0  0  0  0  0  0  0  0  0
    1.2760    5.1962    0.0000 N   0  0  0  0  0  0  0  0  0  0  0  0
    0.5260    3.8971    0.0000 C   0  0  0  0  0  0  0  0  0  0  0  0
   -0.9740    3.8971    0.0000 C   0  0  0  0  0  0  0  0  0  0  0  0
   -1.7240    2.5981    0.0000 C   0  0  0  0  0  0  0  0  0  0  0  0
   -3.2240    2.5981    0.0000 C   0  0  0  0  0  0  0  0  0  0  0  0
   -0.9740    1.2990    0.0000 C   0  0  0  0  0  0  0  0  0  0  0  0
    1.2760    2.5981    0.0000 C   0  0  0  0  0  0  0  0  0  0  0  0
    0.5260    1.2990    0.0000 O   0  0  0  0  0  0  0  0  0  0  0  0
    2.7760    2.5981    0.0000 N   0  0  0  0  0  0  0  0  0  0  0  0
    3.5260    3.8971    0.0000 C   0  0  0  0  0  0  0  0  0  0  0  0
    3.5260    1.2990    0.0000 C   0  0  0  0  0  0  0  0  0  0  0  0
    5.0260    1.2990    0.0000 C   0  0  0  0  0  0  0  0  0  0  0  0
    5.7760    2.5981    0.0000 C   0  0  0  0  0  0  0  0  0  0  0  0
    7.2760    2.5981    0.0000 C   0  0  0  0  0  0  0  0  0  0  0  0
    5.0260    3.8971    0.0000 C   0  0  0  0  0  0  0  0  0  0  0  0
    2.7760    0.0000    0.0000 C   0  0  0  0  0  0  0  0  0  0  0  0
    1.2760    0.0000    0.0000 O   0  0  0  0  0  0  0  0  0  0  0  0
    3.5260   -1.2990    0.0000 N   0  0  0  0  0  0  0  0  0  0  0  0
    5.0178   -1.4558    0.0000 C   0  0  0  0  0  0  0  0  0  0  0  0
    5.3296   -2.9231    0.0000 C   0  0  0  0  0  0  0  0  0  0  0  0
    4.0306   -3.6731    0.0000 C   0  0  0  0  0  0  0  0  0  0  0  0
    2.9159   -2.6694    0.0000 C   0  0  0  0  0  0  0  0  0  0  0  0
    1.4486   -2.9812    0.0000 C   0  0  0  0  0  0  0  0  0  0  0  0
    0.4450   -1.8665    0.0000 O   0  0  0  0  0  0  0  0  0  0  0  0
    0.9851   -4.4078    0.0000 N   0  0  0  0  0  0  0  0  0  0  0  0
   -0.4821   -4.7197    0.0000 C   0  0  0  0  0  0  0  0  0  0  0  0
   -0.9456   -6.1463    0.0000 C   0  0  0  0  0  0  0  0  0  0  0  0
   -2.4128   -6.4581    0.0000 C   0  0  0  0  0  0  0  0  0  0  0  0
   -3.8801   -6.7700    0.0000 C   0  0  0  0  0  0  0  0  0  0  0  0
   -1.4858   -3.6050    0.0000 C   0  0  0  0  0  0  0  0  0  0  0  0
   -1.0223   -2.1784    0.0000 O   0  0  0  0  0  0  0  0  0  0  0  0
   -2.9530   -3.9168    0.0000 O   0  0  0  0  0  0  0  0  0  0  0  0
  2  1  1  6
  2  3  1  0
  3  4  1  0
  3  5  1  6
  2  6  1  0
  6  7  2  0
  6  8  1  0
  8  9  1  0
  9 10  1  6
 10 11  1  0
 11 12  1  0
 11 13  1  0
  9 14  1  0
 14 15  2  0
 14 16  1  0
 16 17  1  0
 16 18  1  0
 18 19  1  1
 19 20  1  0
 20 21  1  0
 20 22  1  0
 18 23  1  0
 23 24  2  0
 23 25  1  0
 25 26  1  0
 26 27  1  0
 27 28  1  0
 28 29  1  0
 29 30  1  1
 30 31  2  0
 30 32  1  0
 32 33  1  0
 33 34  1  1
 34 35  1  0
 35 36  3  0
 33 37  1  0
 37 38  2  0
 37 39  1  0
 29 25  1  0
M  END
$$$$

     RDKit          2D

 39 39  0  0  0  0  0  0  0  0999 V2000
    2.7760    7.7942    0.0000 N   0  0  0  0  0  0  0  0  0  0  0  0
    1.2760    7.7942    0.0000 C   0  0  0  0  0  0  0  0  0  0  0  0
    0.5260    9.0933    0.0000 C   0  0  0  0  0  0  0  0  0  0  0  0
   -0.9740    9.0933    0.0000 O   0  0  0  0  0  0  0  0  0  0  0  0
    1.2760   10.3923    0.0000 C   0  0  0  0  0  0  0  0  0  0  0  0
    0.5260    6.4952    0.0000 C   0  0  0  0  0  0  0  0  0  0  0  0
   -0.9740    6.4952    0.0000 O   0  0  0  0  0  0  0  0  0  0  0  0
    1.2760    5.1962    0.0000 N   0  0  0  0  0  0  0  0  0  0  0  0
    0.5260    3.8971    0.0000 C   0  0  0  0  0  0  0  0  0  0  0  0
   -0.9740    3.8971    0.0000 C   0  0  0  0  0  0  0  0  0  0  0  0
   -1.7240    2.5981    0.0000 C   0  0  0  0  0  0  0  0  0  0  0  0
   -3.2240    2.5981    0.0000 C   0  0  0  0  0  0  0  0  0  0  0  0
   -0.9740    1.2990    0.0000 C   0  0  0  0  0  0  0  0  0  0  0  0
    1.2760    2.5981    0.0000 C   0  0  0  0  0  0  0  0  0  0  0  0
    0.5260    1.2990    0.0000 O   0  0  0  0  0  0  0  0  0  0  0  0
    2.7760    2.5981    0.0000 N   0  0  0  0  0  0  0  0  0  0  0  0
    3.5260    3.8971    0.0000 C   0  0  0  0  0  0  0  0  0  0  0  0
    3.5260    1.2990    0.0000 C   0  0  0  0  0  0  0  0  0  0  0  0
    5.0260    1.2990    0.0000 C   0  0  0  0  0  0  0  0  0  0  0  0
    5.7760    2.5981    0.0000 C   0  0  0  0  0  0  0  0  0  0  0  0
    7.2760    2.5981    0.0000 C   0  0  0  0  0  0  0  0  0  0  0  0
    5.0260    3.8971    0.0000 C   0  0  0  0  0  0  0  0  0  0  0  0
    2.7760    0.0000    0.0000 C   0  0  0  0  0  0  0  0  0  0  0  0
    1.2760    0.0000    0.0000 O   0  0  0  0  0  0  0  0  0  0  0  0
    3.5260   -1.2990    0.0000 N   0  0  0  0  0  0  0  0  0  0  0  0
    5.0178   -1.4558    0.0000 C   0  0  0  0  0  0  0  0  0  0  0  0
    5.3296   -2.9231    0.0000 C   0  0  0  0  0  0  0  0  0  0  0  0
    4.0306   -3.6731    0.0000 C   0  0  0  0  0  0  0  0  0  0  0  0
    2.9159   -2.6694    0.0000 C   0  0  0  0  0  0  0  0  0  0  0  0
    1.4486   -2.9812    0.0000 C   0  0  0  0  0  0  0  0  0  0  0  0
    0.4450   -1.8665    0.0000 O   0  0  0  0  0  0  0  0  0  0  0  0
    0.9851   -4.4078    0.0000 N   0  0  0  0  0  0  0  0  0  0  0  0
   -0.4821   -4.7197    0.0000 C   0  0  0  0  0  0  0  0  0  0  0  0
   -0.9456   -6.1463    0.0000 C   0  0  0  0  0  0  0  0  0  0  0  0
   -2.4128   -6.4581    0.0000 C   0  0  0  0  0  0  0  0  0  0  0  0
   -3.8801   -6.7700    0.0000 C   0  0  0  0  0  0  0  0  0  0  0  0
   -1.4858   -3.6050    0.0000 C   0  0  0  0  0  0  0  0  0  0  0  0
   -1.0223   -2.1784    0.0000 O   0  0  0  0  0  0  0  0  0  0  0  0
   -2.9530   -3.9168    0.0000 O   0  0  0  0  0  0  0  0  0  0  0  0
  2  1  1  1
  2  3  1  0
  3  4  1  0
  3  5  1  6
  2  6  1  0
  6  7  2  0
  6  8  1  0
  8  9  1  0
  9 10  1  6
 10 11  1  0
 11 12  1  0
 11 13  1  0
  9 14  1  0
 14 15  2  0
 14 16  1  0
 16 17  1  0
 16 18  1  0
 18 19  1  1
 19 20  1  0
 20 21  1  0
 20 22  1  0
 18 23  1  0
 23 24  2  0
 23 25  1  0
 25 26  1  0
 26 27  1  0
 27 28  1  0
 28 29  1  0
 29 30  1  1
 30 31  2  0
 30 32  1  0
 32 33  1  0
 33 34  1  1
 34 35  1  0
 35 36  3  0
 33 37  1  0
 37 38  2  0
 37 39  1  0
 29 25  1  0
M  END
$$$$

     RDKit          2D

 40 40  0  0  0  0  0  0  0  0999 V2000
    2.7760    7.7942    0.0000 N   0  0  0  0  0  0  0  0  0  0  0  0
    3.5260    9.0933    0.0000 C   0  0  0  0  0  0  0  0  0  0  0  0
    1.2760    7.7942    0.0000 C   0  0  0  0  0  0  0  0  0  0  0  0
    0.5260    9.0933    0.0000 C   0  0  0  0  0  0  0  0  0  0  0  0
   -0.9740    9.0933    0.0000 O   0  0  0  0  0  0  0  0  0  0  0  0
    1.2760   10.3923    0.0000 C   0  0  0  0  0  0  0  0  0  0  0  0
    0.5260    6.4952    0.0000 C   0  0  0  0  0  0  0  0  0  0  0  0
   -0.9740    6.4952    0.0000 O   0  0  0  0  0  0  0  0  0  0  0  0
    1.2760    5.1962    0.0000 N   0  0  0  0  0  0  0  0  0  0  0  0
    0.5260    3.8971    0.0000 C   0  0  0  0  0  0  0  0  0  0  0  0
   -0.9740    3.8971    0.0000 C   0  0  0  0  0  0  0  0  0  0  0  0
   -1.7240    2.5981    0.0000 C   0  0  0  0  0  0  0  0  0  0  0  0
   -3.2240    2.5981    0.0000 C   0  0  0  0  0  0  0  0  0  0  0  0
   -0.9740    1.2990    0.0000 C   0  0  0  0  0  0  0  0  0  0  0  0
    1.2760    2.5981    0.0000 C   0  0  0  0  0  0  0  0  0  0  0  0
    0.5260    1.2990    0.0000 O   0  0  0  0  0  0  0  0  0  0  0  0
    2.7760    2.5981    0.0000 N   0  0  0  0  0  0  0  0  0  0  0  0
    3.5260    3.8971    0.0000 C   0  0  0  0  0  0  0  0  0  0  0  0
    3.5260    1.2990    0.0000 C   0  0  0  0  0  0  0  0  0  0  0  0
    5.0260    1.2990    0.0000 C   0  0  0  0  0  0  0  0  0  0  0  0
    5.7760    2.5981    0.0000 C   0  0  0  0  0  0  0  0  0  0  0  0
    7.2760    2.5981    0.0000 C   0  0  0  0  0  0  0  0  0  0  0  0
    5.0260    3.8971    0.0000 C   0  0  0  0  0  0  0  0  0  0  0  0
    2.7760    0.0000    0.0000 C   0  0  0  0  0  0  0  0  0  0  0  0
    1.2760    0.0000    0.0000 O   0  0  0  0  0  0  0  0  0  0  0  0
    3.5260   -1.2990    0.0000 N   0  0  0  0  0  0  0  0  0  0  0  0
    5.0178   -1.4558    0.0000 C   0  0  0  0  0  0  0  0  0  0  0  0
    5.3296   -2.9231    0.0000 C   0  0  0  0  0  0  0  0  0  0  0  0
    4.0306   -3.6731    0.0000 C   0  0  0  0  0  0  0  0  0  0  0  0
    2.9159   -2.6694    0.0000 C   0  0  0  0  0  0  0  0  0  0  0  0
    1.4486   -2.9812    0.0000 C   0  0  0  0  0  0  0  0  0  0  0  0
    0.4450   -1.8665    0.0000 O   0  0  0  0  0  0  0  0  0  0  0  0
    0.9851   -4.4078    0.0000 N   0  0  0  0  0  0  0  0  0  0  0  0
   -0.4821   -4.7197    0.0000 C   0  0  0  0  0  0  0  0  0  0  0  0
   -0.9456   -6.1463    0.0000 C   0  0  0  0  0  0  0  0  0  0  0  0
   -2.4128   -6.4581    0.0000 C   0  0  0  0  0  0  0  0  0  0  0  0
   -3.8801   -6.7700    0.0000 C   0  0  0  0  0  0  0  0  0  0  0  0
   -1.4858   -3.6050    0.0000 C   0  0  0  0  0  0  0  0  0  0  0  0
   -1.0223   -2.1784    0.0000 O   0  0  0  0  0  0  0  0  0  0  0  0
   -2.9530   -3.9168    0.0000 O   0  0  0  0  0  0  0  0  0  0  0  0
  1  2  1  0
  3  1  1  6
  3  4  1  0
  4  5  1  0
  4  6  1  6
  3  7  1  0
  7  8  2  0
  7  9  1  0
  9 10  1  0
 10 11  1  6
 11 12  1  0
 12 13  1  0
 12 14  1  0
 10 15  1  0
 15 16  2  0
 15 17  1  0
 17 18  1  0
 17 19  1  0
 19 20  1  1
 20 21  1  0
 21 22  1  0
 21 23  1  0
 19 24  1  0
 24 25  2  0
 24 26  1  0
 26 27  1  0
 27 28  1  0
 28 29  1  0
 29 30  1  0
 30 31  1  1
 31 32  2  0
 31 33  1  0
 33 34  1  0
 34 35  1  1
 35 36  1  0
 36 37  3  0
 34 38  1  0
 38 39  2  0
 38 40  1  0
 30 26  1  0
M  END
$$$$

     RDKit          2D

 40 40  0  0  0  0  0  0  0  0999 V2000
    2.7760    7.7942    0.0000 N   0  0  0  0  0  0  0  0  0  0  0  0
    3.5260    9.0933    0.0000 C   0  0  0  0  0  0  0  0  0  0  0  0
    1.2760    7.7942    0.0000 C   0  0  0  0  0  0  0  0  0  0  0  0
    0.5260    9.0933    0.0000 C   0  0  0  0  0  0  0  0  0  0  0  0
   -0.9740    9.0933    0.0000 O   0  0  0  0  0  0  0  0  0  0  0  0
    1.2760   10.3923    0.0000 C   0  0  0  0  0  0  0  0  0  0  0  0
    0.5260    6.4952    0.0000 C   0  0  0  0  0  0  0  0  0  0  0  0
   -0.9740    6.4952    0.0000 O   0  0  0  0  0  0  0  0  0  0  0  0
    1.2760    5.1962    0.0000 N   0  0  0  0  0  0  0  0  0  0  0  0
    0.5260    3.8971    0.0000 C   0  0  0  0  0  0  0  0  0  0  0  0
   -0.9740    3.8971    0.0000 C   0  0  0  0  0  0  0  0  0  0  0  0
   -1.7240    2.5981    0.0000 C   0  0  0  0  0  0  0  0  0  0  0  0
   -3.2240    2.5981    0.0000 C   0  0  0  0  0  0  0  0  0  0  0  0
   -0.9740    1.2990    0.0000 C   0  0  0  0  0  0  0  0  0  0  0  0
    1.2760    2.5981    0.0000 C   0  0  0  0  0  0  0  0  0  0  0  0
    0.5260    1.2990    0.0000 O   0  0  0  0  0  0  0  0  0  0  0  0
    2.7760    2.5981    0.0000 N   0  0  0  0  0  0  0  0  0  0  0  0
    3.5260    3.8971    0.0000 C   0  0  0  0  0  0  0  0  0  0  0  0
    3.5260    1.2990    0.0000 C   0  0  0  0  0  0  0  0  0  0  0  0
    5.0260    1.2990    0.0000 C   0  0  0  0  0  0  0  0  0  0  0  0
    5.7760    2.5981    0.0000 C   0  0  0  0  0  0  0  0  0  0  0  0
    7.2760    2.5981    0.0000 C   0  0  0  0  0  0  0  0  0  0  0  0
    5.0260    3.8971    0.0000 C   0  0  0  0  0  0  0  0  0  0  0  0
    2.7760    0.0000    0.0000 C   0  0  0  0  0  0  0  0  0  0  0  0
    1.2760    0.0000    0.0000 O   0  0  0  0  0  0  0  0  0  0  0  0
    3.5260   -1.2990    0.0000 N   0  0  0  0  0  0  0  0  0  0  0  0
    5.0178   -1.4558    0.0000 C   0  0  0  0  0  0  0  0  0  0  0  0
    5.3296   -2.9231    0.0000 C   0  0  0  0  0  0  0  0  0  0  0  0
    4.0306   -3.6731    0.0000 C   0  0  0  0  0  0  0  0  0  0  0  0
    2.9159   -2.6694    0.0000 C   0  0  0  0  0  0  0  0  0  0  0  0
    1.4486   -2.9812    0.0000 C   0  0  0  0  0  0  0  0  0  0  0  0
    0.4450   -1.8665    0.0000 O   0  0  0  0  0  0  0  0  0  0  0  0
    0.9851   -4.4078    0.0000 N   0  0  0  0  0  0  0  0  0  0  0  0
   -0.4821   -4.7197    0.0000 C   0  0  0  0  0  0  0  0  0  0  0  0
   -0.9456   -6.1463    0.0000 C   0  0  0  0  0  0  0  0  0  0  0  0
   -2.4128   -6.4581    0.0000 C   0  0  0  0  0  0  0  0  0  0  0  0
   -3.8801   -6.7700    0.0000 C   0  0  0  0  0  0  0  0  0  0  0  0
   -1.4858   -3.6050    0.0000 C   0  0  0  0  0  0  0  0  0  0  0  0
   -1.0223   -2.1784    0.0000 O   0  0  0  0  0  0  0  0  0  0  0  0
   -2.9530   -3.9168    0.0000 O   0  0  0  0  0  0  0  0  0  0  0  0
  1  2  1  0
  3  1  1  1
  3  4  1  0
  4  5  1  0
  4  6  1  6
  3  7  1  0
  7  8  2  0
  7  9  1  0
  9 10  1  0
 10 11  1  6
 11 12  1  0
 12 13  1  0
 12 14  1  0
 10 15  1  0
 15 16  2  0
 15 17  1  0
 17 18  1  0
 17 19  1  0
 19 20  1  1
 20 21  1  0
 21 22  1  0
 21 23  1  0
 19 24  1  0
 24 25  2  0
 24 26  1  0
 26 27  1  0
 27 28  1  0
 28 29  1  0
 29 30  1  0
 30 31  1  1
 31 32  2  0
 31 33  1  0
 33 34  1  0
 34 35  1  1
 35 36  1  0
 36 37  3  0
 34 38  1  0
 38 39  2  0
 38 40  1  0
 30 26  1  0
M  END
$$$$

     RDKit          2D

 40 40  0  0  0  0  0  0  0  0999 V2000
    0.5260    9.0933    0.0000 N   0  0  0  0  0  0  0  0  0  0  0  0
    1.2760   10.3923    0.0000 C   0  0  0  0  0  0  0  0  0  0  0  0
    0.5260   11.6913    0.0000 C   0  0  0  0  0  0  0  0  0  0  0  0
    1.2760   12.9904    0.0000 C   0  0  0  0  0  0  0  0  0  0  0  0
   -0.9740   11.6913    0.0000 C   0  0  0  0  0  0  0  0  0  0  0  0
    1.2760    7.7942    0.0000 C   0  0  0  0  0  0  0  0  0  0  0  0
    0.5260    6.4952    0.0000 C   0  0  0  0  0  0  0  0  0  0  0  0
   -0.9740    6.4952    0.0000 O   0  0  0  0  0  0  0  0  0  0  0  0
    1.2760    5.1962    0.0000 N   0  0  0  0  0  0  0  0  0  0  0  0
    0.5260    3.8971    0.0000 C   0  0  0  0  0  0  0  0  0  0  0  0
   -0.9740    3.8971    0.0000 C   0  0  0  0  0  0  0  0  0  0  0  0
   -1.7240    2.5981    0.0000 C   0  0  0  0  0  0  0  0  0  0  0  0
   -3.2240    2.5981    0.0000 C   0  0  0  0  0  0  0  0  0  0  0  0
   -0.9740    1.2990    0.0000 C   0  0  0  0  0  0  0  0  0  0  0  0
    1.2760    2.5981    0.0000 C   0  0  0  0  0  0  0  0  0  0  0  0
    0.5260    1.2990    0.0000 O   0  0  0  0  0  0  0  0  0  0  0  0
    2.7760    2.5981    0.0000 N   0  0  0  0  0  0  0  0  0  0  0  0
    3.5260    3.8971    0.0000 C   0  0  0  0  0  0  0  0  0  0  0  0
    3.5260    1.2990    0.0000 C   0  0  0  0  0  0  0  0  0  0  0  0
    5.0260    1.2990    0.0000 C   0  0  0  0  0  0  0  0  0  0  0  0
    5.7760    2.5981    0.0000 C   0  0  0  0  0  0  0  0  0  0  0  0
    7.2760    2.5981    0.0000 C   0  0  0  0  0  0  0  0  0  0  0  0
    5.0260    3.8971    0.0000 C   0  0  0  0  0  0  0  0  0  0  0  0
    2.7760    0.0000    0.0000 C   0  0  0  0  0  0  0  0  0  0  0  0
    1.2760    0.0000    0.0000 O   0  0  0  0  0  0  0  0  0  0  0  0
    3.5260   -1.2990    0.0000 N   0  0  0  0  0  0  0  0  0  0  0  0
    5.0178   -1.4558    0.0000 C   0  0  0  0  0  0  0  0  0  0  0  0
    5.3296   -2.9231    0.0000 C   0  0  0  0  0  0  0  0  0  0  0  0
    4.0306   -3.6731    0.0000 C   0  0  0  0  0  0  0  0  0  0  0  0
    2.9159   -2.6694    0.0000 C   0  0  0  0  0  0  0  0  0  0  0  0
    1.4486   -2.9812    0.0000 C   0  0  0  0  0  0  0  0  0  0  0  0
    0.4450   -1.8665    0.0000 O   0  0  0  0  0  0  0  0  0  0  0  0
    0.9851   -4.4078    0.0000 N   0  0  0  0  0  0  0  0  0  0  0  0
   -0.4821   -4.7197    0.0000 C   0  0  0  0  0  0  0  0  0  0  0  0
   -0.9456   -6.1463    0.0000 C   0  0  0  0  0  0  0  0  0  0  0  0
   -2.4128   -6.4581    0.0000 C   0  0  0  0  0  0  0  0  0  0  0  0
   -3.8801   -6.7700    0.0000 C   0  0  0  0  0  0  0  0  0  0  0  0
   -1.4858   -3.6050    0.0000 C   0  0  0  0  0  0  0  0  0  0  0  0
   -1.0223   -2.1784    0.0000 O   0  0  0  0  0  0  0  0  0  0  0  0
   -2.9530   -3.9168    0.0000 O   0  0  0  0  0  0  0  0  0  0  0  0
  1  2  1  0
  2  3  1  0
  3  4  1  0
  3  5  1  0
  1  6  1  0
  6  7  1  0
  7  8  2  0
  7  9  1  0
  9 10  1  0
 10 11  1  6
 11 12  1  0
 12 13  1  0
 12 14  1  0
 10 15  1  0
 15 16  2  0
 15 17  1  0
 17 18  1  0
 17 19  1  0
 19 20  1  1
 20 21  1  0
 21 22  1  0
 21 23  1  0
 19 24  1  0
 24 25  2  0
 24 26  1  0
 26 27  1  0
 27 28  1  0
 28 29  1  0
 29 30  1  0
 30 31  1  1
 31 32  2  0
 31 33  1  0
 33 34  1  0
 34 35  1  1
 35 36  1  0
 36 37  3  0
 34 38  1  0
 38 39  2  0
 38 40  1  0
 30 26  1  0
M  END
$$$$

     RDKit          2D

 43 43  0  0  0  0  0  0  0  0999 V2000
    0.5260    9.0933    0.0000 N   0  0  0  0  0  0  0  0  0  0  0  0
    1.2760   10.3923    0.0000 C   0  0  0  0  0  0  0  0  0  0  0  0
    0.5260   11.6913    0.0000 C   0  0  0  0  0  0  0  0  0  0  0  0
    1.2760   12.9904    0.0000 C   0  0  0  0  0  0  0  0  0  0  0  0
    0.5260   14.2894    0.0000 O   0  0  0  0  0  0  0  0  0  0  0  0
    1.2760   15.5885    0.0000 C   0  0  0  0  0  0  0  0  0  0  0  0
    0.5260   16.8875    0.0000 C   0  0  0  0  0  0  0  0  0  0  0  0
    2.7760   15.5885    0.0000 C   0  0  0  0  0  0  0  0  0  0  0  0
    1.2760    7.7942    0.0000 C   0  0  0  0  0  0  0  0  0  0  0  0
    0.5260    6.4952    0.0000 C   0  0  0  0  0  0  0  0  0  0  0  0
   -0.9740    6.4952    0.0000 O   0  0  0  0  0  0  0  0  0  0  0  0
    1.2760    5.1962    0.0000 N   0  0  0  0  0  0  0  0  0  0  0  0
    0.5260    3.8971    0.0000 C   0  0  0  0  0  0  0  0  0  0  0  0
   -0.9740    3.8971    0.0000 C   0  0  0  0  0  0  0  0  0  0  0  0
   -1.7240    2.5981    0.0000 C   0  0  0  0  0  0  0  0  0  0  0  0
   -3.2240    2.5981    0.0000 C   0  0  0  0  0  0  0  0  0  0  0  0
   -0.9740    1.2990    0.0000 C   0  0  0  0  0  0  0  0  0  0  0  0
    1.2760    2.5981    0.0000 C   0  0  0  0  0  0  0  0  0  0  0  0
    0.5260    1.2990    0.0000 O   0  0  0  0  0  0  0  0  0  0  0  0
    2.7760    2.5981    0.0000 N   0  0  0  0  0  0  0  0  0  0  0  0
    3.5260    3.8971    0.0000 C   0  0  0  0  0  0  0  0  0  0  0  0
    3.5260    1.2990    0.0000 C   0  0  0  0  0  0  0  0  0  0  0  0
    5.0260    1.2990    0.0000 C   0  0  0  0  0  0  0  0  0  0  0  0
    5.7760    2.5981    0.0000 C   0  0  0  0  0  0  0  0  0  0  0  0
    7.2760    2.5981    0.0000 C   0  0  0  0  0  0  0  0  0  0  0  0
    5.0260    3.8971    0.0000 C   0  0  0  0  0  0  0  0  0  0  0  0
    2.7760    0.0000    0.0000 C   0  0  0  0  0  0  0  0  0  0  0  0
    1.2760    0.0000    0.0000 O   0  0  0  0  0  0  0  0  0  0  0  0
    3.5260   -1.2990    0.0000 N   0  0  0  0  0  0  0  0  0  0  0  0
    5.0178   -1.4558    0.0000 C   0  0  0  0  0  0  0  0  0  0  0  0
    5.3296   -2.9231    0.0000 C   0  0  0  0  0  0  0  0  0  0  0  0
    4.0306   -3.6731    0.0000 C   0  0  0  0  0  0  0  0  0  0  0  0
    2.9159   -2.6694    0.0000 C   0  0  0  0  0  0  0  0  0  0  0  0
    1.4486   -2.9812    0.0000 C   0  0  0  0  0  0  0  0  0  0  0  0
    0.4450   -1.8665    0.0000 O   0  0  0  0  0  0  0  0  0  0  0  0
    0.9851   -4.4078    0.0000 N   0  0  0  0  0  0  0  0  0  0  0  0
   -0.4821   -4.7197    0.0000 C   0  0  0  0  0  0  0  0  0  0  0  0
   -0.9456   -6.1463    0.0000 C   0  0  0  0  0  0  0  0  0  0  0  0
   -2.4128   -6.4581    0.0000 C   0  0  0  0  0  0  0  0  0  0  0  0
   -3.8801   -6.7700    0.0000 C   0  0  0  0  0  0  0  0  0  0  0  0
   -1.4858   -3.6050    0.0000 C   0  0  0  0  0  0  0  0  0  0  0  0
   -1.0223   -2.1784    0.0000 O   0  0  0  0  0  0  0  0  0  0  0  0
   -2.9530   -3.9168    0.0000 O   0  0  0  0  0  0  0  0  0  0  0  0
  1  2  1  0
  2  3  1  0
  3  4  1  0
  4  5  1  0
  5  6  1  0
  6  7  1  0
  6  8  1  0
  1  9  1  0
  9 10  1  0
 10 11  2  0
 10 12  1  0
 12 13  1  0
 13 14  1  6
 14 15  1  0
 15 16  1  0
 15 17  1  0
 13 18  1  0
 18 19  2  0
 18 20  1  0
 20 21  1  0
 20 22  1  0
 22 23  1  1
 23 24  1  0
 24 25  1  0
 24 26  1  0
 22 27  1  0
 27 28  2  0
 27 29  1  0
 29 30  1  0
 30 31  1  0
 31 32  1  0
 32 33  1  0
 33 34  1  1
 34 35  2  0
 34 36  1  0
 36 37  1  0
 37 38  1  1
 38 39  1  0
 39 40  3  0
 37 41  1  0
 41 42  2  0
 41 43  1  0
 33 29  1  0
M  END
$$$$

     RDKit          2D

 45 46  0  0  0  0  0  0  0  0999 V2000
    3.0000   -7.7942    0.0000 N   0  0  0  0  0  0  0  0  0  0  0  0
    3.7500   -6.4952    0.0000 C   0  0  0  0  0  0  0  0  0  0  0  0
    5.2500   -6.4952    0.0000 C   0  0  0  0  0  0  0  0  0  0  0  0
    6.0000   -5.1962    0.0000 O   0  0  0  0  0  0  0  0  0  0  0  0
    7.5000   -5.1962    0.0000 C   0  0  0  0  0  0  0  0  0  0  0  0
    8.2500   -3.8971    0.0000 C   0  0  0  0  0  0  0  0  0  0  0  0
    9.7500   -3.8971    0.0000 C   0  0  0  0  0  0  0  0  0  0  0  0
   10.5000   -5.1962    0.0000 C   0  0  0  0  0  0  0  0  0  0  0  0
    9.7500   -6.4952    0.0000 C   0  0  0  0  0  0  0  0  0  0  0  0
    8.2500   -6.4952    0.0000 C   0  0  0  0  0  0  0  0  0  0  0  0
    1.5000   -7.7942    0.0000 C   0  0  0  0  0  0  0  0  0  0  0  0
    0.7500   -9.0933    0.0000 C   0  0  0  0  0  0  0  0  0  0  0  0
    1.5000  -10.3923    0.0000 O   0  0  0  0  0  0  0  0  0  0  0  0
   -0.7500   -9.0933    0.0000 N   0  0  0  0  0  0  0  0  0  0  0  0
   -1.5000  -10.3923    0.0000 C   0  0  0  0  0  0  0  0  0  0  0  0
   -3.0000  -10.3923    0.0000 C   0  0  0  0  0  0  0  0  0  0  0  0
   -3.7500   -9.0933    0.0000 C   0  0  0  0  0  0  0  0  0  0  0  0
   -5.2500   -9.0933    0.0000 C   0  0  0  0  0  0  0  0  0  0  0  0
   -3.0000   -7.7942    0.0000 C   0  0  0  0  0  0  0  0  0  0  0  0
   -0.7500  -11.6913    0.0000 C   0  0  0  0  0  0  0  0  0  0  0  0
    0.7500  -11.6913    0.0000 O   0  0  0  0  0  0  0  0  0  0  0  0
   -1.5000  -12.9904    0.0000 N   0  0  0  0  0  0  0  0  0  0  0  0
   -3.0000  -12.9904    0.0000 C   0  0  0  0  0  0  0  0  0  0  0  0
   -0.7500  -14.2894    0.0000 C   0  0  0  0  0  0  0  0  0  0  0  0
   -1.5000  -15.5885    0.0000 C   0  0  0  0  0  0  0  0  0  0  0  0
   -3.0000  -15.5885    0.0000 C   0  0  0  0  0  0  0  0  0  0  0  0
   -3.7500  -16.8875    0.0000 C   0  0  0  0  0  0  0  0  0  0  0  0
   -3.7500  -14.2894    0.0000 C   0  0  0  0  0  0  0  0  0  0  0  0
    0.7500  -14.2894    0.0000 C   0  0  0  0  0  0  0  0  0  0  0  0
    1.5000  -12.9904    0.0000 O   0  0  0  0  0  0  0  0  0  0  0  0
    1.5000  -15.5885    0.0000 N   0  0  0  0  0  0  0  0  0  0  0  0
    0.8899  -16.9588    0.0000 C   0  0  0  0  0  0  0  0  0  0  0  0
    2.0046  -17.9625    0.0000 C   0  0  0  0  0  0  0  0  0  0  0  0
    3.3037  -17.2125    0.0000 C   0  0  0  0  0  0  0  0  0  0  0  0
    2.9918  -15.7452    0.0000 C   0  0  0  0  0  0  0  0  0  0  0  0
    3.9955  -14.6305    0.0000 C   0  0  0  0  0  0  0  0  0  0  0  0
    3.5320  -13.2039    0.0000 O   0  0  0  0  0  0  0  0  0  0  0  0
    5.4627  -14.9424    0.0000 N   0  0  0  0  0  0  0  0  0  0  0  0
    6.4664  -13.8277    0.0000 C   0  0  0  0  0  0  0  0  0  0  0  0
    7.9336  -14.1396    0.0000 C   0  0  0  0  0  0  0  0  0  0  0  0
    8.9373  -13.0248    0.0000 C   0  0  0  0  0  0  0  0  0  0  0  0
    9.9410  -11.9101    0.0000 C   0  0  0  0  0  0  0  0  0  0  0  0
    6.0029  -12.4011    0.0000 C   0  0  0  0  0  0  0  0  0  0  0  0
    4.5356  -12.0892    0.0000 O   0  0  0  0  0  0  0  0  0  0  0  0
    7.0066  -11.2864    0.0000 O   0  0  0  0  0  0  0  0  0  0  0  0
  1  2  1  0
  2  3  1  0
  3  4  1  0
  4  5  1  0
  5  6  2  0
  6  7  1  0
  7  8  2  0
  8  9  1  0
  9 10  2  0
  1 11  1  0
 11 12  1  0
 12 13  2  0
 12 14  1  0
 14 15  1  0
 15 16  1  6
 16 17  1  0
 17 18  1  0
 17 19  1  0
 15 20  1  0
 20 21  2  0
 20 22  1  0
 22 23  1  0
 22 24  1  0
 24 25  1  6
 25 26  1  0
 26 27  1  0
 26 28  1  0
 24 29  1  0
 29 30  2  0
 29 31  1  0
 31 32  1  0
 32 33  1  0
 33 34  1  0
 34 35  1  0
 35 36  1  6
 36 37  2  0
 36 38  1  0
 38 39  1  0
 39 40  1  6
 40 41  1  0
 41 42  3  0
 39 43  1  0
 43 44  2  0
 43 45  1  0
 10  5  1  0
 35 31  1  0
M  END
$$$$

     RDKit          2D

 48 49  0  0  0  0  0  0  0  0999 V2000
   -3.0000  -12.9904    0.0000 N   0  0  0  0  0  0  0  0  0  0  0  0
   -3.7500  -14.2894    0.0000 C   0  0  0  0  0  0  0  0  0  0  0  0
   -5.2500  -14.2894    0.0000 C   0  0  0  0  0  0  0  0  0  0  0  0
   -6.0000  -15.5885    0.0000 C   0  0  0  0  0  0  0  0  0  0  0  0
   -7.5000  -15.5885    0.0000 C   0  0  0  0  0  0  0  0  0  0  0  0
   -8.2500  -16.8875    0.0000 C   0  0  0  0  0  0  0  0  0  0  0  0
   -7.5000  -18.1865    0.0000 C   0  0  0  0  0  0  0  0  0  0  0  0
   -6.0000  -18.1865    0.0000 C   0  0  0  0  0  0  0  0  0  0  0  0
   -5.2500  -19.4856    0.0000 O   0  0  0  0  0  0  0  0  0  0  0  0
   -3.7500  -19.4856    0.0000 C   0  0  0  0  0  0  0  0  0  0  0  0
   -5.2500  -16.8875    0.0000 C   0  0  0  0  0  0  0  0  0  0  0  0
   -8.2500  -19.4856    0.0000 O   0  0  0  0  0  0  0  0  0  0  0  0
   -9.7500  -19.4856    0.0000 C   0  0  0  0  0  0  0  0  0  0  0  0
   -1.5000  -12.9904    0.0000 C   0  0  0  0  0  0  0  0  0  0  0  0
   -0.7500  -11.6913    0.0000 C   0  0  0  0  0  0  0  0  0  0  0  0
   -1.5000  -10.3923    0.0000 O   0  0  0  0  0  0  0  0  0  0  0  0
    0.7500  -11.6913    0.0000 N   0  0  0  0  0  0  0  0  0  0  0  0
    1.5000  -10.3923    0.0000 C   0  0  0  0  0  0  0  0  0  0  0  0
    0.7500   -9.0933    0.0000 C   0  0  0  0  0  0  0  0  0  0  0  0
    1.5000   -7.7942    0.0000 C   0  0  0  0  0  0  0  0  0  0  0  0
    0.7500   -6.4952    0.0000 C   0  0  0  0  0  0  0  0  0  0  0  0
    3.0000   -7.7942    0.0000 C   0  0  0  0  0  0  0  0  0  0  0  0
    3.0000  -10.3923    0.0000 C   0  0  0  0  0  0  0  0  0  0  0  0
    3.7500   -9.0933    0.0000 O   0  0  0  0  0  0  0  0  0  0  0  0
    3.7500  -11.6913    0.0000 N   0  0  0  0  0  0  0  0  0  0  0  0
    3.0000  -12.9904    0.0000 C   0  0  0  0  0  0  0  0  0  0  0  0
    5.2500  -11.6913    0.0000 C   0  0  0  0  0  0  0  0  0  0  0  0
    6.0000  -12.9904    0.0000 C   0  0  0  0  0  0  0  0  0  0  0  0
    5.2500  -14.2894    0.0000 C   0  0  0  0  0  0  0  0  0  0  0  0
    6.0000  -15.5885    0.0000 C   0  0  0  0  0  0  0  0  0  0  0  0
    3.7500  -14.2894    0.0000 C   0  0  0  0  0  0  0  0  0  0  0  0
    6.0000  -10.3923    0.0000 C   0  0  0  0  0  0  0  0  0  0  0  0
    5.2500   -9.0933    0.0000 O   0  0  0  0  0  0  0  0  0  0  0  0
    7.5000  -10.3923    0.0000 N   0  0  0  0  0  0  0  0  0  0  0  0
    8.3817  -11.6058    0.0000 C   0  0  0  0  0  0  0  0  0  0  0  0
    9.8083  -11.1423    0.0000 C   0  0  0  0  0  0  0  0  0  0  0  0
    9.8083   -9.6423    0.0000 C   0  0  0  0  0  0  0  0  0  0  0  0
    8.3817   -9.1788    0.0000 C   0  0  0  0  0  0  0  0  0  0  0  0
    7.9182   -7.7522    0.0000 C   0  0  0  0  0  0  0  0  0  0  0  0
    6.4509   -7.4403    0.0000 O   0  0  0  0  0  0  0  0  0  0  0  0
    8.9218   -6.6375    0.0000 N   0  0  0  0  0  0  0  0  0  0  0  0
    8.4583   -5.2109    0.0000 C   0  0  0  0  0  0  0  0  0  0  0  0
    9.4620   -4.0962    0.0000 C   0  0  0  0  0  0  0  0  0  0  0  0
    8.9985   -2.6696    0.0000 C   0  0  0  0  0  0  0  0  0  0  0  0
    8.5350   -1.2430    0.0000 C   0  0  0  0  0  0  0  0  0  0  0  0
    6.9911   -4.8990    0.0000 C   0  0  0  0  0  0  0  0  0  0  0  0
    5.9874   -6.0137    0.0000 O   0  0  0  0  0  0  0  0  0  0  0  0
    6.5276   -3.4724    0.0000 O   0  0  0  0  0  0  0  0  0  0  0  0
  1  2  1  0
  2  3  1  0
  3  4  1  0
  4  5  2  0
  5  6  1  0
  6  7  2  0
  7  8  1  0
  8  9  1  0
  9 10  1  0
  8 11  2  0
  7 12  1  0
 12 13  1  0
  1 14  1  0
 14 15  1  0
 15 16  2  0
 15 17  1  0
 17 18  1  0
 18 19  1  1
 19 20  1  0
 20 21  1  0
 20 22  1  0
 18 23  1  0
 23 24  2  0
 23 25  1  0
 25 26  1  0
 25 27  1  0
 27 28  1  6
 28 29  1  0
 29 30  1  0
 29 31  1  0
 27 32  1  0
 32 33  2  0
 32 34  1  0
 34 35  1  0
 35 36  1  0
 36 37  1  0
 37 38  1  0
 38 39  1  6
 39 40  2  0
 39 41  1  0
 41 42  1  0
 42 43  1  6
 43 44  1  0
 44 45  3  0
 42 46  1  0
 46 47  2  0
 46 48  1  0
 11  4  1  0
 38 34  1  0
M  END
$$$$

     RDKit          2D

 55 56  0  0  0  0  0  0  0  0999 V2000
   -6.5574    2.6509    0.0000 N   0  0  0  0  0  0  0  0  0  0  0  0
   -7.7710    1.7692    0.0000 C   0  0  0  0  0  0  0  0  0  0  0  0
   -9.1413    2.3794    0.0000 C   0  0  0  0  0  0  0  0  0  0  0  0
   -9.2981    3.8711    0.0000 C   0  0  0  0  0  0  0  0  0  0  0  0
  -10.6684    4.4812    0.0000 C   0  0  0  0  0  0  0  0  0  0  0  0
   -8.0845    4.7528    0.0000 C   0  0  0  0  0  0  0  0  0  0  0  0
   -7.6142    0.2775    0.0000 C   0  0  0  0  0  0  0  0  0  0  0  0
   -8.8277   -0.6042    0.0000 O   0  0  0  0  0  0  0  0  0  0  0  0
   -6.2438   -0.3326    0.0000 N   0  0  0  0  0  0  0  0  0  0  0  0
   -6.0870   -1.8244    0.0000 C   0  0  0  0  0  0  0  0  0  0  0  0
   -7.3006   -2.7061    0.0000 C   0  0  0  0  0  0  0  0  0  0  0  0
   -7.1438   -4.1979    0.0000 C   0  0  0  0  0  0  0  0  0  0  0  0
   -8.3573   -5.0796    0.0000 C   0  0  0  0  0  0  0  0  0  0  0  0
   -5.7735   -4.8080    0.0000 C   0  0  0  0  0  0  0  0  0  0  0  0
   -4.7167   -2.4345    0.0000 C   0  0  0  0  0  0  0  0  0  0  0  0
   -4.5599   -3.9263    0.0000 O   0  0  0  0  0  0  0  0  0  0  0  0
   -3.5032   -1.5528    0.0000 N   0  0  0  0  0  0  0  0  0  0  0  0
   -3.5032   -0.0528    0.0000 C   0  0  0  0  0  0  0  0  0  0  0  0
   -2.0766    0.4107    0.0000 C   0  0  0  0  0  0  0  0  0  0  0  0
   -1.1949   -0.8028    0.0000 C   0  0  0  0  0  0  0  0  0  0  0  0
   -2.0766   -2.0164    0.0000 C   0  0  0  0  0  0  0  0  0  0  0  0
   -1.6131   -3.4430    0.0000 C   0  0  0  0  0  0  0  0  0  0  0  0
   -2.6168   -4.5577    0.0000 O   0  0  0  0  0  0  0  0  0  0  0  0
   -0.1459   -3.7548    0.0000 N   0  0  0  0  0  0  0  0  0  0  0  0
    0.3177   -5.1814    0.0000 C   0  0  0  0  0  0  0  0  0  0  0  0
   -0.6860   -6.2961    0.0000 C   0  0  0  0  0  0  0  0  0  0  0  0
   -0.2225   -7.7227    0.0000 C   0  0  0  0  0  0  0  0  0  0  0  0
   -1.2262   -8.8374    0.0000 C   0  0  0  0  0  0  0  0  0  0  0  0
    1.2447   -8.0346    0.0000 C   0  0  0  0  0  0  0  0  0  0  0  0
    1.7849   -5.4933    0.0000 C   0  0  0  0  0  0  0  0  0  0  0  0
    2.2484   -6.9199    0.0000 O   0  0  0  0  0  0  0  0  0  0  0  0
    2.7886   -4.3786    0.0000 N   0  0  0  0  0  0  0  0  0  0  0  0
    2.3250   -2.9520    0.0000 C   0  0  0  0  0  0  0  0  0  0  0  0
    4.2558   -4.6904    0.0000 C   0  0  0  0  0  0  0  0  0  0  0  0
    5.2595   -3.5757    0.0000 C   0  0  0  0  0  0  0  0  0  0  0  0
    4.7960   -2.1491    0.0000 C   0  0  0  0  0  0  0  0  0  0  0  0
    5.7997   -1.0344    0.0000 C   0  0  0  0  0  0  0  0  0  0  0  0
    3.3287   -1.8373    0.0000 C   0  0  0  0  0  0  0  0  0  0  0  0
    4.7193   -6.1170    0.0000 C   0  0  0  0  0  0  0  0  0  0  0  0
    3.7156   -7.2317    0.0000 O   0  0  0  0  0  0  0  0  0  0  0  0
    6.1865   -6.4289    0.0000 N   0  0  0  0  0  0  0  0  0  0  0  0
    7.3013   -5.4252    0.0000 C   0  0  0  0  0  0  0  0  0  0  0  0
    8.6003   -6.1752    0.0000 C   0  0  0  0  0  0  0  0  0  0  0  0
    8.2884   -7.6424    0.0000 C   0  0  0  0  0  0  0  0  0  0  0  0
    6.7966   -7.7992    0.0000 C   0  0  0  0  0  0  0  0  0  0  0  0
    6.0466   -9.0982    0.0000 C   0  0  0  0  0  0  0  0  0  0  0  0
    4.5466   -9.0982    0.0000 O   0  0  0  0  0  0  0  0  0  0  0  0
    6.7966  -10.3973    0.0000 N   0  0  0  0  0  0  0  0  0  0  0  0
    6.0466  -11.6963    0.0000 C   0  0  0  0  0  0  0  0  0  0  0  0
    6.7966  -12.9954    0.0000 C   0  0  0  0  0  0  0  0  0  0  0  0
    6.0466  -14.2944    0.0000 C   0  0  0  0  0  0  0  0  0  0  0  0
    5.2966  -15.5934    0.0000 C   0  0  0  0  0  0  0  0  0  0  0  0
    4.5466  -11.6963    0.0000 C   0  0  0  0  0  0  0  0  0  0  0  0
    3.7966  -10.3973    0.0000 O   0  0  0  0  0  0  0  0  0  0  0  0
    3.7966  -12.9954    0.0000 O   0  0  0  0  0  0  0  0  0  0  0  0
  2  1  1  6
  2  3  1  0
  3  4  1  0
  4  5  1  0
  4  6  1  0
  2  7  1  0
  7  8  2  0
  7  9  1  0
  9 10  1  0
 10 11  1  6
 11 12  1  0
 12 13  1  0
 12 14  1  0
 10 15  1  0
 15 16  2  0
 15 17  1  0
 17 18  1  0
 18 19  1  0
 19 20  1  0
 20 21  1  0
 21 22  1  1
 22 23  2  0
 22 24  1  0
 24 25  1  0
 25 26  1  6
 26 27  1  0
 27 28  1  0
 27 29  1  0
 25 30  1  0
 30 31  2  0
 30 32  1  0
 32 33  1  0
 32 34  1  0
 34 35  1  1
 35 36  1  0
 36 37  1  0
 36 38  1  0
 34 39  1  0
 39 40  2  0
 39 41  1  0
 41 42  1  0
 42 43  1  0
 43 44  1  0
 44 45  1  0
 45 46  1  1
 46 47  2  0
 46 48  1  0
 48 49  1  0
 49 50  1  1
 50 51  1  0
 51 52  3  0
 49 53  1  0
 53 54  2  0
 53 55  1  0
 45 41  1  0
 21 17  1  0
M  END
$$$$

     RDKit          2D

 55 56  0  0  0  0  0  0  0  0999 V2000
   -6.5574    2.6509    0.0000 N   0  0  0  0  0  0  0  0  0  0  0  0
   -7.7710    1.7692    0.0000 C   0  0  0  0  0  0  0  0  0  0  0  0
   -9.1413    2.3794    0.0000 C   0  0  0  0  0  0  0  0  0  0  0  0
   -9.2981    3.8711    0.0000 C   0  0  0  0  0  0  0  0  0  0  0  0
  -10.6684    4.4812    0.0000 C   0  0  0  0  0  0  0  0  0  0  0  0
   -8.0845    4.7528    0.0000 C   0  0  0  0  0  0  0  0  0  0  0  0
   -7.6142    0.2775    0.0000 C   0  0  0  0  0  0  0  0  0  0  0  0
   -8.8277   -0.6042    0.0000 O   0  0  0  0  0  0  0  0  0  0  0  0
   -6.2438   -0.3326    0.0000 N   0  0  0  0  0  0  0  0  0  0  0  0
   -6.0870   -1.8244    0.0000 C   0  0  0  0  0  0  0  0  0  0  0  0
   -7.3006   -2.7061    0.0000 C   0  0  0  0  0  0  0  0  0  0  0  0
   -7.1438   -4.1979    0.0000 C   0  0  0  0  0  0  0  0  0  0  0  0
   -8.3573   -5.0796    0.0000 C   0  0  0  0  0  0  0  0  0  0  0  0
   -5.7735   -4.8080    0.0000 C   0  0  0  0  0  0  0  0  0  0  0  0
   -4.7167   -2.4345    0.0000 C   0  0  0  0  0  0  0  0  0  0  0  0
   -4.5599   -3.9263    0.0000 O   0  0  0  0  0  0  0  0  0  0  0  0
   -3.5032   -1.5528    0.0000 N   0  0  0  0  0  0  0  0  0  0  0  0
   -3.5032   -0.0528    0.0000 C   0  0  0  0  0  0  0  0  0  0  0  0
   -2.0766    0.4107    0.0000 C   0  0  0  0  0  0  0  0  0  0  0  0
   -1.1949   -0.8028    0.0000 C   0  0  0  0  0  0  0  0  0  0  0  0
   -2.0766   -2.0164    0.0000 C   0  0  0  0  0  0  0  0  0  0  0  0
   -1.6131   -3.4430    0.0000 C   0  0  0  0  0  0  0  0  0  0  0  0
   -2.6168   -4.5577    0.0000 O   0  0  0  0  0  0  0  0  0  0  0  0
   -0.1459   -3.7548    0.0000 N   0  0  0  0  0  0  0  0  0  0  0  0
    0.3177   -5.1814    0.0000 C   0  0  0  0  0  0  0  0  0  0  0  0
   -0.6860   -6.2961    0.0000 C   0  0  0  0  0  0  0  0  0  0  0  0
   -0.2225   -7.7227    0.0000 C   0  0  0  0  0  0  0  0  0  0  0  0
   -1.2262   -8.8374    0.0000 C   0  0  0  0  0  0  0  0  0  0  0  0
    1.2447   -8.0346    0.0000 C   0  0  0  0  0  0  0  0  0  0  0  0
    1.7849   -5.4933    0.0000 C   0  0  0  0  0  0  0  0  0  0  0  0
    2.2484   -6.9199    0.0000 O   0  0  0  0  0  0  0  0  0  0  0  0
    2.7886   -4.3786    0.0000 N   0  0  0  0  0  0  0  0  0  0  0  0
    2.3250   -2.9520    0.0000 C   0  0  0  0  0  0  0  0  0  0  0  0
    4.2558   -4.6904    0.0000 C   0  0  0  0  0  0  0  0  0  0  0  0
    5.2595   -3.5757    0.0000 C   0  0  0  0  0  0  0  0  0  0  0  0
    4.7960   -2.1491    0.0000 C   0  0  0  0  0  0  0  0  0  0  0  0
    5.7997   -1.0344    0.0000 C   0  0  0  0  0  0  0  0  0  0  0  0
    3.3287   -1.8373    0.0000 C   0  0  0  0  0  0  0  0  0  0  0  0
    4.7193   -6.1170    0.0000 C   0  0  0  0  0  0  0  0  0  0  0  0
    3.7156   -7.2317    0.0000 O   0  0  0  0  0  0  0  0  0  0  0  0
    6.1865   -6.4289    0.0000 N   0  0  0  0  0  0  0  0  0  0  0  0
    7.3013   -5.4252    0.0000 C   0  0  0  0  0  0  0  0  0  0  0  0
    8.6003   -6.1752    0.0000 C   0  0  0  0  0  0  0  0  0  0  0  0
    8.2884   -7.6424    0.0000 C   0  0  0  0  0  0  0  0  0  0  0  0
    6.7966   -7.7992    0.0000 C   0  0  0  0  0  0  0  0  0  0  0  0
    6.0466   -9.0982    0.0000 C   0  0  0  0  0  0  0  0  0  0  0  0
    4.5466   -9.0982    0.0000 O   0  0  0  0  0  0  0  0  0  0  0  0
    6.7966  -10.3973    0.0000 N   0  0  0  0  0  0  0  0  0  0  0  0
    6.0466  -11.6963    0.0000 C   0  0  0  0  0  0  0  0  0  0  0  0
    6.7966  -12.9954    0.0000 C   0  0  0  0  0  0  0  0  0  0  0  0
    6.0466  -14.2944    0.0000 C   0  0  0  0  0  0  0  0  0  0  0  0
    5.2966  -15.5934    0.0000 C   0  0  0  0  0  0  0  0  0  0  0  0
    4.5466  -11.6963    0.0000 C   0  0  0  0  0  0  0  0  0  0  0  0
    3.7966  -10.3973    0.0000 O   0  0  0  0  0  0  0  0  0  0  0  0
    3.7966  -12.9954    0.0000 O   0  0  0  0  0  0  0  0  0  0  0  0
  2  1  1  1
  2  3  1  0
  3  4  1  0
  4  5  1  0
  4  6  1  0
  2  7  1  0
  7  8  2  0
  7  9  1  0
  9 10  1  0
 10 11  1  6
 11 12  1  0
 12 13  1  0
 12 14  1  0
 10 15  1  0
 15 16  2  0
 15 17  1  0
 17 18  1  0
 18 19  1  0
 19 20  1  0
 20 21  1  0
 21 22  1  1
 22 23  2  0
 22 24  1  0
 24 25  1  0
 25 26  1  6
 26 27  1  0
 27 28  1  0
 27 29  1  0
 25 30  1  0
 30 31  2  0
 30 32  1  0
 32 33  1  0
 32 34  1  0
 34 35  1  1
 35 36  1  0
 36 37  1  0
 36 38  1  0
 34 39  1  0
 39 40  2  0
 39 41  1  0
 41 42  1  0
 42 43  1  0
 43 44  1  0
 44 45  1  0
 45 46  1  1
 46 47  2  0
 46 48  1  0
 48 49  1  0
 49 50  1  1
 50 51  1  0
 51 52  3  0
 49 53  1  0
 53 54  2  0
 53 55  1  0
 45 41  1  0
 21 17  1  0
M  END
$$$$

     RDKit          2D

 56 57  0  0  0  0  0  0  0  0999 V2000
   -6.5574    2.6509    0.0000 N   0  0  0  0  0  0  0  0  0  0  0  0
   -6.7142    4.1427    0.0000 C   0  0  0  0  0  0  0  0  0  0  0  0
   -7.7710    1.7692    0.0000 C   0  0  0  0  0  0  0  0  0  0  0  0
   -9.1413    2.3794    0.0000 C   0  0  0  0  0  0  0  0  0  0  0  0
   -9.2981    3.8711    0.0000 C   0  0  0  0  0  0  0  0  0  0  0  0
  -10.6684    4.4812    0.0000 C   0  0  0  0  0  0  0  0  0  0  0  0
   -8.0845    4.7528    0.0000 C   0  0  0  0  0  0  0  0  0  0  0  0
   -7.6142    0.2775    0.0000 C   0  0  0  0  0  0  0  0  0  0  0  0
   -8.8277   -0.6042    0.0000 O   0  0  0  0  0  0  0  0  0  0  0  0
   -6.2438   -0.3326    0.0000 N   0  0  0  0  0  0  0  0  0  0  0  0
   -6.0870   -1.8244    0.0000 C   0  0  0  0  0  0  0  0  0  0  0  0
   -7.3006   -2.7061    0.0000 C   0  0  0  0  0  0  0  0  0  0  0  0
   -7.1438   -4.1979    0.0000 C   0  0  0  0  0  0  0  0  0  0  0  0
   -8.3573   -5.0796    0.0000 C   0  0  0  0  0  0  0  0  0  0  0  0
   -5.7735   -4.8080    0.0000 C   0  0  0  0  0  0  0  0  0  0  0  0
   -4.7167   -2.4345    0.0000 C   0  0  0  0  0  0  0  0  0  0  0  0
   -4.5599   -3.9263    0.0000 O   0  0  0  0  0  0  0  0  0  0  0  0
   -3.5032   -1.5528    0.0000 N   0  0  0  0  0  0  0  0  0  0  0  0
   -3.5032   -0.0528    0.0000 C   0  0  0  0  0  0  0  0  0  0  0  0
   -2.0766    0.4107    0.0000 C   0  0  0  0  0  0  0  0  0  0  0  0
   -1.1949   -0.8028    0.0000 C   0  0  0  0  0  0  0  0  0  0  0  0
   -2.0766   -2.0164    0.0000 C   0  0  0  0  0  0  0  0  0  0  0  0
   -1.6131   -3.4430    0.0000 C   0  0  0  0  0  0  0  0  0  0  0  0
   -2.6168   -4.5577    0.0000 O   0  0  0  0  0  0  0  0  0  0  0  0
   -0.1459   -3.7548    0.0000 N   0  0  0  0  0  0  0  0  0  0  0  0
    0.3177   -5.1814    0.0000 C   0  0  0  0  0  0  0  0  0  0  0  0
   -0.6860   -6.2961    0.0000 C   0  0  0  0  0  0  0  0  0  0  0  0
   -0.2225   -7.7227    0.0000 C   0  0  0  0  0  0  0  0  0  0  0  0
   -1.2262   -8.8374    0.0000 C   0  0  0  0  0  0  0  0  0  0  0  0
    1.2447   -8.0346    0.0000 C   0  0  0  0  0  0  0  0  0  0  0  0
    1.7849   -5.4933    0.0000 C   0  0  0  0  0  0  0  0  0  0  0  0
    2.2484   -6.9199    0.0000 O   0  0  0  0  0  0  0  0  0  0  0  0
    2.7886   -4.3786    0.0000 N   0  0  0  0  0  0  0  0  0  0  0  0
    2.3250   -2.9520    0.0000 C   0  0  0  0  0  0  0  0  0  0  0  0
    4.2558   -4.6904    0.0000 C   0  0  0  0  0  0  0  0  0  0  0  0
    5.2595   -3.5757    0.0000 C   0  0  0  0  0  0  0  0  0  0  0  0
    4.7960   -2.1491    0.0000 C   0  0  0  0  0  0  0  0  0  0  0  0
    5.7997   -1.0344    0.0000 C   0  0  0  0  0  0  0  0  0  0  0  0
    3.3287   -1.8373    0.0000 C   0  0  0  0  0  0  0  0  0  0  0  0
    4.7193   -6.1170    0.0000 C   0  0  0  0  0  0  0  0  0  0  0  0
    3.7156   -7.2317    0.0000 O   0  0  0  0  0  0  0  0  0  0  0  0
    6.1865   -6.4289    0.0000 N   0  0  0  0  0  0  0  0  0  0  0  0
    7.3013   -5.4252    0.0000 C   0  0  0  0  0  0  0  0  0  0  0  0
    8.6003   -6.1752    0.0000 C   0  0  0  0  0  0  0  0  0  0  0  0
    8.2884   -7.6424    0.0000 C   0  0  0  0  0  0  0  0  0  0  0  0
    6.7966   -7.7992    0.0000 C   0  0  0  0  0  0  0  0  0  0  0  0
    6.0466   -9.0982    0.0000 C   0  0  0  0  0  0  0  0  0  0  0  0
    4.5466   -9.0982    0.0000 O   0  0  0  0  0  0  0  0  0  0  0  0
    6.7966  -10.3973    0.0000 N   0  0  0  0  0  0  0  0  0  0  0  0
    6.0466  -11.6963    0.0000 C   0  0  0  0  0  0  0  0  0  0  0  0
    6.7966  -12.9954    0.0000 C   0  0  0  0  0  0  0  0  0  0  0  0
    6.0466  -14.2944    0.0000 C   0  0  0  0  0  0  0  0  0  0  0  0
    5.2966  -15.5934    0.0000 C   0  0  0  0  0  0  0  0  0  0  0  0
    4.5466  -11.6963    0.0000 C   0  0  0  0  0  0  0  0  0  0  0  0
    3.7966  -10.3973    0.0000 O   0  0  0  0  0  0  0  0  0  0  0  0
    3.7966  -12.9954    0.0000 O   0  0  0  0  0  0  0  0  0  0  0  0
  1  2  1  0
  1  3  1  0
  3  4  1  6
  4  5  1  0
  5  6  1  0
  5  7  1  0
  3  8  1  0
  8  9  2  0
  8 10  1  0
 10 11  1  0
 11 12  1  6
 12 13  1  0
 13 14  1  0
 13 15  1  0
 11 16  1  0
 16 17  2  0
 16 18  1  0
 18 19  1  0
 19 20  1  0
 20 21  1  0
 21 22  1  0
 22 23  1  1
 23 24  2  0
 23 25  1  0
 25 26  1  0
 26 27  1  6
 27 28  1  0
 28 29  1  0
 28 30  1  0
 26 31  1  0
 31 32  2  0
 31 33  1  0
 33 34  1  0
 33 35  1  0
 35 36  1  1
 36 37  1  0
 37 38  1  0
 37 39  1  0
 35 40  1  0
 40 41  2  0
 40 42  1  0
 42 43  1  0
 43 44  1  0
 44 45  1  0
 45 46  1  0
 46 47  1  1
 47 48  2  0
 47 49  1  0
 49 50  1  0
 50 51  1  1
 51 52  1  0
 52 53  3  0
 50 54  1  0
 54 55  2  0
 54 56  1  0
 46 42  1  0
 22 18  1  0
M  END
$$$$

     RDKit          2D

 56 57  0  0  0  0  0  0  0  0999 V2000
   -6.5574    2.6509    0.0000 N   0  0  0  0  0  0  0  0  0  0  0  0
   -6.7142    4.1427    0.0000 C   0  0  0  0  0  0  0  0  0  0  0  0
   -7.7710    1.7692    0.0000 C   0  0  0  0  0  0  0  0  0  0  0  0
   -9.1413    2.3794    0.0000 C   0  0  0  0  0  0  0  0  0  0  0  0
   -9.2981    3.8711    0.0000 C   0  0  0  0  0  0  0  0  0  0  0  0
  -10.6684    4.4812    0.0000 C   0  0  0  0  0  0  0  0  0  0  0  0
   -8.0845    4.7528    0.0000 C   0  0  0  0  0  0  0  0  0  0  0  0
   -7.6142    0.2775    0.0000 C   0  0  0  0  0  0  0  0  0  0  0  0
   -8.8277   -0.6042    0.0000 O   0  0  0  0  0  0  0  0  0  0  0  0
   -6.2438   -0.3326    0.0000 N   0  0  0  0  0  0  0  0  0  0  0  0
   -6.0870   -1.8244    0.0000 C   0  0  0  0  0  0  0  0  0  0  0  0
   -7.3006   -2.7061    0.0000 C   0  0  0  0  0  0  0  0  0  0  0  0
   -7.1438   -4.1979    0.0000 C   0  0  0  0  0  0  0  0  0  0  0  0
   -8.3573   -5.0796    0.0000 C   0  0  0  0  0  0  0  0  0  0  0  0
   -5.7735   -4.8080    0.0000 C   0  0  0  0  0  0  0  0  0  0  0  0
   -4.7167   -2.4345    0.0000 C   0  0  0  0  0  0  0  0  0  0  0  0
   -4.5599   -3.9263    0.0000 O   0  0  0  0  0  0  0  0  0  0  0  0
   -3.5032   -1.5528    0.0000 N   0  0  0  0  0  0  0  0  0  0  0  0
   -3.5032   -0.0528    0.0000 C   0  0  0  0  0  0  0  0  0  0  0  0
   -2.0766    0.4107    0.0000 C   0  0  0  0  0  0  0  0  0  0  0  0
   -1.1949   -0.8028    0.0000 C   0  0  0  0  0  0  0  0  0  0  0  0
   -2.0766   -2.0164    0.0000 C   0  0  0  0  0  0  0  0  0  0  0  0
   -1.6131   -3.4430    0.0000 C   0  0  0  0  0  0  0  0  0  0  0  0
   -2.6168   -4.5577    0.0000 O   0  0  0  0  0  0  0  0  0  0  0  0
   -0.1459   -3.7548    0.0000 N   0  0  0  0  0  0  0  0  0  0  0  0
    0.3177   -5.1814    0.0000 C   0  0  0  0  0  0  0  0  0  0  0  0
   -0.6860   -6.2961    0.0000 C   0  0  0  0  0  0  0  0  0  0  0  0
   -0.2225   -7.7227    0.0000 C   0  0  0  0  0  0  0  0  0  0  0  0
   -1.2262   -8.8374    0.0000 C   0  0  0  0  0  0  0  0  0  0  0  0
    1.2447   -8.0346    0.0000 C   0  0  0  0  0  0  0  0  0  0  0  0
    1.7849   -5.4933    0.0000 C   0  0  0  0  0  0  0  0  0  0  0  0
    2.2484   -6.9199    0.0000 O   0  0  0  0  0  0  0  0  0  0  0  0
    2.7886   -4.3786    0.0000 N   0  0  0  0  0  0  0  0  0  0  0  0
    2.3250   -2.9520    0.0000 C   0  0  0  0  0  0  0  0  0  0  0  0
    4.2558   -4.6904    0.0000 C   0  0  0  0  0  0  0  0  0  0  0  0
    5.2595   -3.5757    0.0000 C   0  0  0  0  0  0  0  0  0  0  0  0
    4.7960   -2.1491    0.0000 C   0  0  0  0  0  0  0  0  0  0  0  0
    5.7997   -1.0344    0.0000 C   0  0  0  0  0  0  0  0  0  0  0  0
    3.3287   -1.8373    0.0000 C   0  0  0  0  0  0  0  0  0  0  0  0
    4.7193   -6.1170    0.0000 C   0  0  0  0  0  0  0  0  0  0  0  0
    3.7156   -7.2317    0.0000 O   0  0  0  0  0  0  0  0  0  0  0  0
    6.1865   -6.4289    0.0000 N   0  0  0  0  0  0  0  0  0  0  0  0
    7.3013   -5.4252    0.0000 C   0  0  0  0  0  0  0  0  0  0  0  0
    8.6003   -6.1752    0.0000 C   0  0  0  0  0  0  0  0  0  0  0  0
    8.2884   -7.6424    0.0000 C   0  0  0  0  0  0  0  0  0  0  0  0
    6.7966   -7.7992    0.0000 C   0  0  0  0  0  0  0  0  0  0  0  0
    6.0466   -9.0982    0.0000 C   0  0  0  0  0  0  0  0  0  0  0  0
    4.5466   -9.0982    0.0000 O   0  0  0  0  0  0  0  0  0  0  0  0
    6.7966  -10.3973    0.0000 N   0  0  0  0  0  0  0  0  0  0  0  0
    6.0466  -11.6963    0.0000 C   0  0  0  0  0  0  0  0  0  0  0  0
    6.7966  -12.9954    0.0000 C   0  0  0  0  0  0  0  0  0  0  0  0
    6.0466  -14.2944    0.0000 C   0  0  0  0  0  0  0  0  0  0  0  0
    5.2966  -15.5934    0.0000 C   0  0  0  0  0  0  0  0  0  0  0  0
    4.5466  -11.6963    0.0000 C   0  0  0  0  0  0  0  0  0  0  0  0
    3.7966  -10.3973    0.0000 O   0  0  0  0  0  0  0  0  0  0  0  0
    3.7966  -12.9954    0.0000 O   0  0  0  0  0  0  0  0  0  0  0  0
  1  2  1  0
  1  3  1  0
  3  4  1  1
  4  5  1  0
  5  6  1  0
  5  7  1  0
  3  8  1  0
  8  9  2  0
  8 10  1  0
 10 11  1  0
 11 12  1  6
 12 13  1  0
 13 14  1  0
 13 15  1  0
 11 16  1  0
 16 17  2  0
 16 18  1  0
 18 19  1  0
 19 20  1  0
 20 21  1  0
 21 22  1  0
 22 23  1  1
 23 24  2  0
 23 25  1  0
 25 26  1  0
 26 27  1  6
 27 28  1  0
 28 29  1  0
 28 30  1  0
 26 31  1  0
 31 32  2  0
 31 33  1  0
 33 34  1  0
 33 35  1  0
 35 36  1  1
 36 37  1  0
 37 38  1  0
 37 39  1  0
 35 40  1  0
 40 41  2  0
 40 42  1  0
 42 43  1  0
 43 44  1  0
 44 45  1  0
 45 46  1  0
 46 47  1  1
 47 48  2  0
 47 49  1  0
 49 50  1  0
 50 51  1  1
 51 52  1  0
 52 53  3  0
 50 54  1  0
 54 55  2  0
 54 56  1  0
 46 42  1  0
 22 18  1  0
M  END
$$$$

     RDKit          2D

 55 56  0  0  0  0  0  0  0  0999 V2000
   -6.5574    2.6509    0.0000 N   0  0  0  0  0  0  0  0  0  0  0  0
   -7.7710    1.7692    0.0000 C   0  0  0  0  0  0  0  0  0  0  0  0
   -9.1413    2.3794    0.0000 C   0  0  0  0  0  0  0  0  0  0  0  0
   -9.2981    3.8711    0.0000 C   0  0  0  0  0  0  0  0  0  0  0  0
  -10.6684    4.4812    0.0000 C   0  0  0  0  0  0  0  0  0  0  0  0
   -8.0845    4.7528    0.0000 C   0  0  0  0  0  0  0  0  0  0  0  0
   -7.6142    0.2775    0.0000 C   0  0  0  0  0  0  0  0  0  0  0  0
   -8.8277   -0.6042    0.0000 O   0  0  0  0  0  0  0  0  0  0  0  0
   -6.2438   -0.3326    0.0000 N   0  0  0  0  0  0  0  0  0  0  0  0
   -6.0870   -1.8244    0.0000 C   0  0  0  0  0  0  0  0  0  0  0  0
   -7.3006   -2.7061    0.0000 C   0  0  0  0  0  0  0  0  0  0  0  0
   -7.1438   -4.1979    0.0000 C   0  0  0  0  0  0  0  0  0  0  0  0
   -8.3573   -5.0796    0.0000 C   0  0  0  0  0  0  0  0  0  0  0  0
   -5.7735   -4.8080    0.0000 C   0  0  0  0  0  0  0  0  0  0  0  0
   -4.7167   -2.4345    0.0000 C   0  0  0  0  0  0  0  0  0  0  0  0
   -4.5599   -3.9263    0.0000 O   0  0  0  0  0  0  0  0  0  0  0  0
   -3.5032   -1.5528    0.0000 N   0  0  0  0  0  0  0  0  0  0  0  0
   -3.5032   -0.0528    0.0000 C   0  0  0  0  0  0  0  0  0  0  0  0
   -2.0766    0.4107    0.0000 C   0  0  0  0  0  0  0  0  0  0  0  0
   -1.1949   -0.8028    0.0000 C   0  0  0  0  0  0  0  0  0  0  0  0
   -2.0766   -2.0164    0.0000 C   0  0  0  0  0  0  0  0  0  0  0  0
   -1.6131   -3.4430    0.0000 C   0  0  0  0  0  0  0  0  0  0  0  0
   -2.6168   -4.5577    0.0000 O   0  0  0  0  0  0  0  0  0  0  0  0
   -0.1459   -3.7548    0.0000 N   0  0  0  0  0  0  0  0  0  0  0  0
    0.3177   -5.1814    0.0000 C   0  0  0  0  0  0  0  0  0  0  0  0
   -0.6860   -6.2961    0.0000 C   0  0  0  0  0  0  0  0  0  0  0  0
   -0.2225   -7.7227    0.0000 C   0  0  0  0  0  0  0  0  0  0  0  0
   -1.2262   -8.8374    0.0000 C   0  0  0  0  0  0  0  0  0  0  0  0
    1.2447   -8.0346    0.0000 C   0  0  0  0  0  0  0  0  0  0  0  0
    1.7849   -5.4933    0.0000 C   0  0  0  0  0  0  0  0  0  0  0  0
    2.2484   -6.9199    0.0000 O   0  0  0  0  0  0  0  0  0  0  0  0
    2.7886   -4.3786    0.0000 N   0  0  0  0  0  0  0  0  0  0  0  0
    2.3250   -2.9520    0.0000 C   0  0  0  0  0  0  0  0  0  0  0  0
    4.2558   -4.6904    0.0000 C   0  0  0  0  0  0  0  0  0  0  0  0
    5.2595   -3.5757    0.0000 C   0  0  0  0  0  0  0  0  0  0  0  0
    4.7960   -2.1491    0.0000 C   0  0  0  0  0  0  0  0  0  0  0  0
    5.7997   -1.0344    0.0000 C   0  0  0  0  0  0  0  0  0  0  0  0
    3.3287   -1.8373    0.0000 C   0  0  0  0  0  0  0  0  0  0  0  0
    4.7193   -6.1170    0.0000 C   0  0  0  0  0  0  0  0  0  0  0  0
    3.7156   -7.2317    0.0000 O   0  0  0  0  0  0  0  0  0  0  0  0
    6.1865   -6.4289    0.0000 N   0  0  0  0  0  0  0  0  0  0  0  0
    7.3013   -5.4252    0.0000 C   0  0  0  0  0  0  0  0  0  0  0  0
    8.6003   -6.1752    0.0000 C   0  0  0  0  0  0  0  0  0  0  0  0
    8.2884   -7.6424    0.0000 C   0  0  0  0  0  0  0  0  0  0  0  0
    6.7966   -7.7992    0.0000 C   0  0  0  0  0  0  0  0  0  0  0  0
    6.0466   -9.0982    0.0000 C   0  0  0  0  0  0  0  0  0  0  0  0
    4.5466   -9.0982    0.0000 O   0  0  0  0  0  0  0  0  0  0  0  0
    6.7966  -10.3973    0.0000 N   0  0  0  0  0  0  0  0  0  0  0  0
    6.0466  -11.6963    0.0000 C   0  0  0  0  0  0  0  0  0  0  0  0
    6.7966  -12.9954    0.0000 C   0  0  0  0  0  0  0  0  0  0  0  0
    6.0466  -14.2944    0.0000 C   0  0  0  0  0  0  0  0  0  0  0  0
    5.2966  -15.5934    0.0000 C   0  0  0  0  0  0  0  0  0  0  0  0
    4.5466  -11.6963    0.0000 C   0  0  0  0  0  0  0  0  0  0  0  0
    3.7966  -10.3973    0.0000 O   0  0  0  0  0  0  0  0  0  0  0  0
    3.7966  -12.9954    0.0000 O   0  0  0  0  0  0  0  0  0  0  0  0
  2  1  1  6
  2  3  1  0
  3  4  1  0
  4  5  1  0
  4  6  1  0
  2  7  1  0
  7  8  2  0
  7  9  1  0
  9 10  1  0
 10 11  1  1
 11 12  1  0
 12 13  1  0
 12 14  1  0
 10 15  1  0
 15 16  2  0
 15 17  1  0
 17 18  1  0
 18 19  1  0
 19 20  1  0
 20 21  1  0
 21 22  1  1
 22 23  2  0
 22 24  1  0
 24 25  1  0
 25 26  1  6
 26 27  1  0
 27 28  1  0
 27 29  1  0
 25 30  1  0
 30 31  2  0
 30 32  1  0
 32 33  1  0
 32 34  1  0
 34 35  1  1
 35 36  1  0
 36 37  1  0
 36 38  1  0
 34 39  1  0
 39 40  2  0
 39 41  1  0
 41 42  1  0
 42 43  1  0
 43 44  1  0
 44 45  1  0
 45 46  1  1
 46 47  2  0
 46 48  1  0
 48 49  1  0
 49 50  1  1
 50 51  1  0
 51 52  3  0
 49 53  1  0
 53 54  2  0
 53 55  1  0
 45 41  1  0
 21 17  1  0
M  END
$$$$

     RDKit          2D

 55 56  0  0  0  0  0  0  0  0999 V2000
   -6.5574    2.6509    0.0000 N   0  0  0  0  0  0  0  0  0  0  0  0
   -7.7710    1.7692    0.0000 C   0  0  0  0  0  0  0  0  0  0  0  0
   -9.1413    2.3794    0.0000 C   0  0  0  0  0  0  0  0  0  0  0  0
   -9.2981    3.8711    0.0000 C   0  0  0  0  0  0  0  0  0  0  0  0
  -10.6684    4.4812    0.0000 C   0  0  0  0  0  0  0  0  0  0  0  0
   -8.0845    4.7528    0.0000 C   0  0  0  0  0  0  0  0  0  0  0  0
   -7.6142    0.2775    0.0000 C   0  0  0  0  0  0  0  0  0  0  0  0
   -8.8277   -0.6042    0.0000 O   0  0  0  0  0  0  0  0  0  0  0  0
   -6.2438   -0.3326    0.0000 N   0  0  0  0  0  0  0  0  0  0  0  0
   -6.0870   -1.8244    0.0000 C   0  0  0  0  0  0  0  0  0  0  0  0
   -7.3006   -2.7061    0.0000 C   0  0  0  0  0  0  0  0  0  0  0  0
   -7.1438   -4.1979    0.0000 C   0  0  0  0  0  0  0  0  0  0  0  0
   -8.3573   -5.0796    0.0000 C   0  0  0  0  0  0  0  0  0  0  0  0
   -5.7735   -4.8080    0.0000 C   0  0  0  0  0  0  0  0  0  0  0  0
   -4.7167   -2.4345    0.0000 C   0  0  0  0  0  0  0  0  0  0  0  0
   -4.5599   -3.9263    0.0000 O   0  0  0  0  0  0  0  0  0  0  0  0
   -3.5032   -1.5528    0.0000 N   0  0  0  0  0  0  0  0  0  0  0  0
   -3.5032   -0.0528    0.0000 C   0  0  0  0  0  0  0  0  0  0  0  0
   -2.0766    0.4107    0.0000 C   0  0  0  0  0  0  0  0  0  0  0  0
   -1.1949   -0.8028    0.0000 C   0  0  0  0  0  0  0  0  0  0  0  0
   -2.0766   -2.0164    0.0000 C   0  0  0  0  0  0  0  0  0  0  0  0
   -1.6131   -3.4430    0.0000 C   0  0  0  0  0  0  0  0  0  0  0  0
   -2.6168   -4.5577    0.0000 O   0  0  0  0  0  0  0  0  0  0  0  0
   -0.1459   -3.7548    0.0000 N   0  0  0  0  0  0  0  0  0  0  0  0
    0.3177   -5.1814    0.0000 C   0  0  0  0  0  0  0  0  0  0  0  0
   -0.6860   -6.2961    0.0000 C   0  0  0  0  0  0  0  0  0  0  0  0
   -0.2225   -7.7227    0.0000 C   0  0  0  0  0  0  0  0  0  0  0  0
   -1.2262   -8.8374    0.0000 C   0  0  0  0  0  0  0  0  0  0  0  0
    1.2447   -8.0346    0.0000 C   0  0  0  0  0  0  0  0  0  0  0  0
    1.7849   -5.4933    0.0000 C   0  0  0  0  0  0  0  0  0  0  0  0
    2.2484   -6.9199    0.0000 O   0  0  0  0  0  0  0  0  0  0  0  0
    2.7886   -4.3786    0.0000 N   0  0  0  0  0  0  0  0  0  0  0  0
    2.3250   -2.9520    0.0000 C   0  0  0  0  0  0  0  0  0  0  0  0
    4.2558   -4.6904    0.0000 C   0  0  0  0  0  0  0  0  0  0  0  0
    5.2595   -3.5757    0.0000 C   0  0  0  0  0  0  0  0  0  0  0  0
    4.7960   -2.1491    0.0000 C   0  0  0  0  0  0  0  0  0  0  0  0
    5.7997   -1.0344    0.0000 C   0  0  0  0  0  0  0  0  0  0  0  0
    3.3287   -1.8373    0.0000 C   0  0  0  0  0  0  0  0  0  0  0  0
    4.7193   -6.1170    0.0000 C   0  0  0  0  0  0  0  0  0  0  0  0
    3.7156   -7.2317    0.0000 O   0  0  0  0  0  0  0  0  0  0  0  0
    6.1865   -6.4289    0.0000 N   0  0  0  0  0  0  0  0  0  0  0  0
    7.3013   -5.4252    0.0000 C   0  0  0  0  0  0  0  0  0  0  0  0
    8.6003   -6.1752    0.0000 C   0  0  0  0  0  0  0  0  0  0  0  0
    8.2884   -7.6424    0.0000 C   0  0  0  0  0  0  0  0  0  0  0  0
    6.7966   -7.7992    0.0000 C   0  0  0  0  0  0  0  0  0  0  0  0
    6.0466   -9.0982    0.0000 C   0  0  0  0  0  0  0  0  0  0  0  0
    4.5466   -9.0982    0.0000 O   0  0  0  0  0  0  0  0  0  0  0  0
    6.7966  -10.3973    0.0000 N   0  0  0  0  0  0  0  0  0  0  0  0
    6.0466  -11.6963    0.0000 C   0  0  0  0  0  0  0  0  0  0  0  0
    6.7966  -12.9954    0.0000 C   0  0  0  0  0  0  0  0  0  0  0  0
    6.0466  -14.2944    0.0000 C   0  0  0  0  0  0  0  0  0  0  0  0
    5.2966  -15.5934    0.0000 C   0  0  0  0  0  0  0  0  0  0  0  0
    4.5466  -11.6963    0.0000 C   0  0  0  0  0  0  0  0  0  0  0  0
    3.7966  -10.3973    0.0000 O   0  0  0  0  0  0  0  0  0  0  0  0
    3.7966  -12.9954    0.0000 O   0  0  0  0  0  0  0  0  0  0  0  0
  2  1  1  1
  2  3  1  0
  3  4  1  0
  4  5  1  0
  4  6  1  0
  2  7  1  0
  7  8  2  0
  7  9  1  0
  9 10  1  0
 10 11  1  1
 11 12  1  0
 12 13  1  0
 12 14  1  0
 10 15  1  0
 15 16  2  0
 15 17  1  0
 17 18  1  0
 18 19  1  0
 19 20  1  0
 20 21  1  0
 21 22  1  1
 22 23  2  0
 22 24  1  0
 24 25  1  0
 25 26  1  6
 26 27  1  0
 27 28  1  0
 27 29  1  0
 25 30  1  0
 30 31  2  0
 30 32  1  0
 32 33  1  0
 32 34  1  0
 34 35  1  1
 35 36  1  0
 36 37  1  0
 36 38  1  0
 34 39  1  0
 39 40  2  0
 39 41  1  0
 41 42  1  0
 42 43  1  0
 43 44  1  0
 44 45  1  0
 45 46  1  1
 46 47  2  0
 46 48  1  0
 48 49  1  0
 49 50  1  1
 50 51  1  0
 51 52  3  0
 49 53  1  0
 53 54  2  0
 53 55  1  0
 45 41  1  0
 21 17  1  0
M  END
$$$$

     RDKit          2D

 56 57  0  0  0  0  0  0  0  0999 V2000
   -6.5574    2.6509    0.0000 N   0  0  0  0  0  0  0  0  0  0  0  0
   -6.7142    4.1427    0.0000 C   0  0  0  0  0  0  0  0  0  0  0  0
   -7.7710    1.7692    0.0000 C   0  0  0  0  0  0  0  0  0  0  0  0
   -9.1413    2.3794    0.0000 C   0  0  0  0  0  0  0  0  0  0  0  0
   -9.2981    3.8711    0.0000 C   0  0  0  0  0  0  0  0  0  0  0  0
  -10.6684    4.4812    0.0000 C   0  0  0  0  0  0  0  0  0  0  0  0
   -8.0845    4.7528    0.0000 C   0  0  0  0  0  0  0  0  0  0  0  0
   -7.6142    0.2775    0.0000 C   0  0  0  0  0  0  0  0  0  0  0  0
   -8.8277   -0.6042    0.0000 O   0  0  0  0  0  0  0  0  0  0  0  0
   -6.2438   -0.3326    0.0000 N   0  0  0  0  0  0  0  0  0  0  0  0
   -6.0870   -1.8244    0.0000 C   0  0  0  0  0  0  0  0  0  0  0  0
   -7.3006   -2.7061    0.0000 C   0  0  0  0  0  0  0  0  0  0  0  0
   -7.1438   -4.1979    0.0000 C   0  0  0  0  0  0  0  0  0  0  0  0
   -8.3573   -5.0796    0.0000 C   0  0  0  0  0  0  0  0  0  0  0  0
   -5.7735   -4.8080    0.0000 C   0  0  0  0  0  0  0  0  0  0  0  0
   -4.7167   -2.4345    0.0000 C   0  0  0  0  0  0  0  0  0  0  0  0
   -4.5599   -3.9263    0.0000 O   0  0  0  0  0  0  0  0  0  0  0  0
   -3.5032   -1.5528    0.0000 N   0  0  0  0  0  0  0  0  0  0  0  0
   -3.5032   -0.0528    0.0000 C   0  0  0  0  0  0  0  0  0  0  0  0
   -2.0766    0.4107    0.0000 C   0  0  0  0  0  0  0  0  0  0  0  0
   -1.1949   -0.8028    0.0000 C   0  0  0  0  0  0  0  0  0  0  0  0
   -2.0766   -2.0164    0.0000 C   0  0  0  0  0  0  0  0  0  0  0  0
   -1.6131   -3.4430    0.0000 C   0  0  0  0  0  0  0  0  0  0  0  0
   -2.6168   -4.5577    0.0000 O   0  0  0  0  0  0  0  0  0  0  0  0
   -0.1459   -3.7548    0.0000 N   0  0  0  0  0  0  0  0  0  0  0  0
    0.3177   -5.1814    0.0000 C   0  0  0  0  0  0  0  0  0  0  0  0
   -0.6860   -6.2961    0.0000 C   0  0  0  0  0  0  0  0  0  0  0  0
   -0.2225   -7.7227    0.0000 C   0  0  0  0  0  0  0  0  0  0  0  0
   -1.2262   -8.8374    0.0000 C   0  0  0  0  0  0  0  0  0  0  0  0
    1.2447   -8.0346    0.0000 C   0  0  0  0  0  0  0  0  0  0  0  0
    1.7849   -5.4933    0.0000 C   0  0  0  0  0  0  0  0  0  0  0  0
    2.2484   -6.9199    0.0000 O   0  0  0  0  0  0  0  0  0  0  0  0
    2.7886   -4.3786    0.0000 N   0  0  0  0  0  0  0  0  0  0  0  0
    2.3250   -2.9520    0.0000 C   0  0  0  0  0  0  0  0  0  0  0  0
    4.2558   -4.6904    0.0000 C   0  0  0  0  0  0  0  0  0  0  0  0
    5.2595   -3.5757    0.0000 C   0  0  0  0  0  0  0  0  0  0  0  0
    4.7960   -2.1491    0.0000 C   0  0  0  0  0  0  0  0  0  0  0  0
    5.7997   -1.0344    0.0000 C   0  0  0  0  0  0  0  0  0  0  0  0
    3.3287   -1.8373    0.0000 C   0  0  0  0  0  0  0  0  0  0  0  0
    4.7193   -6.1170    0.0000 C   0  0  0  0  0  0  0  0  0  0  0  0
    3.7156   -7.2317    0.0000 O   0  0  0  0  0  0  0  0  0  0  0  0
    6.1865   -6.4289    0.0000 N   0  0  0  0  0  0  0  0  0  0  0  0
    7.3013   -5.4252    0.0000 C   0  0  0  0  0  0  0  0  0  0  0  0
    8.6003   -6.1752    0.0000 C   0  0  0  0  0  0  0  0  0  0  0  0
    8.2884   -7.6424    0.0000 C   0  0  0  0  0  0  0  0  0  0  0  0
    6.7966   -7.7992    0.0000 C   0  0  0  0  0  0  0  0  0  0  0  0
    6.0466   -9.0982    0.0000 C   0  0  0  0  0  0  0  0  0  0  0  0
    4.5466   -9.0982    0.0000 O   0  0  0  0  0  0  0  0  0  0  0  0
    6.7966  -10.3973    0.0000 N   0  0  0  0  0  0  0  0  0  0  0  0
    6.0466  -11.6963    0.0000 C   0  0  0  0  0  0  0  0  0  0  0  0
    6.7966  -12.9954    0.0000 C   0  0  0  0  0  0  0  0  0  0  0  0
    6.0466  -14.2944    0.0000 C   0  0  0  0  0  0  0  0  0  0  0  0
    5.2966  -15.5934    0.0000 C   0  0  0  0  0  0  0  0  0  0  0  0
    4.5466  -11.6963    0.0000 C   0  0  0  0  0  0  0  0  0  0  0  0
    3.7966  -10.3973    0.0000 O   0  0  0  0  0  0  0  0  0  0  0  0
    3.7966  -12.9954    0.0000 O   0  0  0  0  0  0  0  0  0  0  0  0
  1  2  1  0
  1  3  1  0
  3  4  1  6
  4  5  1  0
  5  6  1  0
  5  7  1  0
  3  8  1  0
  8  9  2  0
  8 10  1  0
 10 11  1  0
 11 12  1  1
 12 13  1  0
 13 14  1  0
 13 15  1  0
 11 16  1  0
 16 17  2  0
 16 18  1  0
 18 19  1  0
 19 20  1  0
 20 21  1  0
 21 22  1  0
 22 23  1  1
 23 24  2  0
 23 25  1  0
 25 26  1  0
 26 27  1  6
 27 28  1  0
 28 29  1  0
 28 30  1  0
 26 31  1  0
 31 32  2  0
 31 33  1  0
 33 34  1  0
 33 35  1  0
 35 36  1  1
 36 37  1  0
 37 38  1  0
 37 39  1  0
 35 40  1  0
 40 41  2  0
 40 42  1  0
 42 43  1  0
 43 44  1  0
 44 45  1  0
 45 46  1  0
 46 47  1  1
 47 48  2  0
 47 49  1  0
 49 50  1  0
 50 51  1  1
 51 52  1  0
 52 53  3  0
 50 54  1  0
 54 55  2  0
 54 56  1  0
 46 42  1  0
 22 18  1  0
M  END
$$$$

     RDKit          2D

 56 57  0  0  0  0  0  0  0  0999 V2000
   -6.5574    2.6509    0.0000 N   0  0  0  0  0  0  0  0  0  0  0  0
   -6.7142    4.1427    0.0000 C   0  0  0  0  0  0  0  0  0  0  0  0
   -7.7710    1.7692    0.0000 C   0  0  0  0  0  0  0  0  0  0  0  0
   -9.1413    2.3794    0.0000 C   0  0  0  0  0  0  0  0  0  0  0  0
   -9.2981    3.8711    0.0000 C   0  0  0  0  0  0  0  0  0  0  0  0
  -10.6684    4.4812    0.0000 C   0  0  0  0  0  0  0  0  0  0  0  0
   -8.0845    4.7528    0.0000 C   0  0  0  0  0  0  0  0  0  0  0  0
   -7.6142    0.2775    0.0000 C   0  0  0  0  0  0  0  0  0  0  0  0
   -8.8277   -0.6042    0.0000 O   0  0  0  0  0  0  0  0  0  0  0  0
   -6.2438   -0.3326    0.0000 N   0  0  0  0  0  0  0  0  0  0  0  0
   -6.0870   -1.8244    0.0000 C   0  0  0  0  0  0  0  0  0  0  0  0
   -7.3006   -2.7061    0.0000 C   0  0  0  0  0  0  0  0  0  0  0  0
   -7.1438   -4.1979    0.0000 C   0  0  0  0  0  0  0  0  0  0  0  0
   -8.3573   -5.0796    0.0000 C   0  0  0  0  0  0  0  0  0  0  0  0
   -5.7735   -4.8080    0.0000 C   0  0  0  0  0  0  0  0  0  0  0  0
   -4.7167   -2.4345    0.0000 C   0  0  0  0  0  0  0  0  0  0  0  0
   -4.5599   -3.9263    0.0000 O   0  0  0  0  0  0  0  0  0  0  0  0
   -3.5032   -1.5528    0.0000 N   0  0  0  0  0  0  0  0  0  0  0  0
   -3.5032   -0.0528    0.0000 C   0  0  0  0  0  0  0  0  0  0  0  0
   -2.0766    0.4107    0.0000 C   0  0  0  0  0  0  0  0  0  0  0  0
   -1.1949   -0.8028    0.0000 C   0  0  0  0  0  0  0  0  0  0  0  0
   -2.0766   -2.0164    0.0000 C   0  0  0  0  0  0  0  0  0  0  0  0
   -1.6131   -3.4430    0.0000 C   0  0  0  0  0  0  0  0  0  0  0  0
   -2.6168   -4.5577    0.0000 O   0  0  0  0  0  0  0  0  0  0  0  0
   -0.1459   -3.7548    0.0000 N   0  0  0  0  0  0  0  0  0  0  0  0
    0.3177   -5.1814    0.0000 C   0  0  0  0  0  0  0  0  0  0  0  0
   -0.6860   -6.2961    0.0000 C   0  0  0  0  0  0  0  0  0  0  0  0
   -0.2225   -7.7227    0.0000 C   0  0  0  0  0  0  0  0  0  0  0  0
   -1.2262   -8.8374    0.0000 C   0  0  0  0  0  0  0  0  0  0  0  0
    1.2447   -8.0346    0.0000 C   0  0  0  0  0  0  0  0  0  0  0  0
    1.7849   -5.4933    0.0000 C   0  0  0  0  0  0  0  0  0  0  0  0
    2.2484   -6.9199    0.0000 O   0  0  0  0  0  0  0  0  0  0  0  0
    2.7886   -4.3786    0.0000 N   0  0  0  0  0  0  0  0  0  0  0  0
    2.3250   -2.9520    0.0000 C   0  0  0  0  0  0  0  0  0  0  0  0
    4.2558   -4.6904    0.0000 C   0  0  0  0  0  0  0  0  0  0  0  0
    5.2595   -3.5757    0.0000 C   0  0  0  0  0  0  0  0  0  0  0  0
    4.7960   -2.1491    0.0000 C   0  0  0  0  0  0  0  0  0  0  0  0
    5.7997   -1.0344    0.0000 C   0  0  0  0  0  0  0  0  0  0  0  0
    3.3287   -1.8373    0.0000 C   0  0  0  0  0  0  0  0  0  0  0  0
    4.7193   -6.1170    0.0000 C   0  0  0  0  0  0  0  0  0  0  0  0
    3.7156   -7.2317    0.0000 O   0  0  0  0  0  0  0  0  0  0  0  0
    6.1865   -6.4289    0.0000 N   0  0  0  0  0  0  0  0  0  0  0  0
    7.3013   -5.4252    0.0000 C   0  0  0  0  0  0  0  0  0  0  0  0
    8.6003   -6.1752    0.0000 C   0  0  0  0  0  0  0  0  0  0  0  0
    8.2884   -7.6424    0.0000 C   0  0  0  0  0  0  0  0  0  0  0  0
    6.7966   -7.7992    0.0000 C   0  0  0  0  0  0  0  0  0  0  0  0
    6.0466   -9.0982    0.0000 C   0  0  0  0  0  0  0  0  0  0  0  0
    4.5466   -9.0982    0.0000 O   0  0  0  0  0  0  0  0  0  0  0  0
    6.7966  -10.3973    0.0000 N   0  0  0  0  0  0  0  0  0  0  0  0
    6.0466  -11.6963    0.0000 C   0  0  0  0  0  0  0  0  0  0  0  0
    6.7966  -12.9954    0.0000 C   0  0  0  0  0  0  0  0  0  0  0  0
    6.0466  -14.2944    0.0000 C   0  0  0  0  0  0  0  0  0  0  0  0
    5.2966  -15.5934    0.0000 C   0  0  0  0  0  0  0  0  0  0  0  0
    4.5466  -11.6963    0.0000 C   0  0  0  0  0  0  0  0  0  0  0  0
    3.7966  -10.3973    0.0000 O   0  0  0  0  0  0  0  0  0  0  0  0
    3.7966  -12.9954    0.0000 O   0  0  0  0  0  0  0  0  0  0  0  0
  1  2  1  0
  1  3  1  0
  3  4  1  1
  4  5  1  0
  5  6  1  0
  5  7  1  0
  3  8  1  0
  8  9  2  0
  8 10  1  0
 10 11  1  0
 11 12  1  1
 12 13  1  0
 13 14  1  0
 13 15  1  0
 11 16  1  0
 16 17  2  0
 16 18  1  0
 18 19  1  0
 19 20  1  0
 20 21  1  0
 21 22  1  0
 22 23  1  1
 23 24  2  0
 23 25  1  0
 25 26  1  0
 26 27  1  6
 27 28  1  0
 28 29  1  0
 28 30  1  0
 26 31  1  0
 31 32  2  0
 31 33  1  0
 33 34  1  0
 33 35  1  0
 35 36  1  1
 36 37  1  0
 37 38  1  0
 37 39  1  0
 35 40  1  0
 40 41  2  0
 40 42  1  0
 42 43  1  0
 43 44  1  0
 44 45  1  0
 45 46  1  0
 46 47  1  1
 47 48  2  0
 47 49  1  0
 49 50  1  0
 50 51  1  1
 51 52  1  0
 52 53  3  0
 50 54  1  0
 54 55  2  0
 54 56  1  0
 46 42  1  0
 22 18  1  0
M  END
$$$$

     RDKit          2D

 56 57  0  0  0  0  0  0  0  0999 V2000
    8.0260    1.2990    0.0000 N   0  0  0  0  0  0  0  0  0  0  0  0
    7.2760    0.0000    0.0000 C   0  0  0  0  0  0  0  0  0  0  0  0
    8.0260   -1.2990    0.0000 C   0  0  0  0  0  0  0  0  0  0  0  0
    9.5260   -1.2990    0.0000 C   0  0  0  0  0  0  0  0  0  0  0  0
   10.2760   -2.5981    0.0000 C   0  0  0  0  0  0  0  0  0  0  0  0
   10.2760    0.0000    0.0000 C   0  0  0  0  0  0  0  0  0  0  0  0
    5.7760    0.0000    0.0000 C   0  0  0  0  0  0  0  0  0  0  0  0
    5.0260   -1.2990    0.0000 O   0  0  0  0  0  0  0  0  0  0  0  0
    5.0260    1.2990    0.0000 N   0  0  0  0  0  0  0  0  0  0  0  0
    5.7760    2.5981    0.0000 C   0  0  0  0  0  0  0  0  0  0  0  0
    3.5260    1.2990    0.0000 C   0  0  0  0  0  0  0  0  0  0  0  0
    2.7760    2.5981    0.0000 C   0  0  0  0  0  0  0  0  0  0  0  0
    3.5260    3.8971    0.0000 C   0  0  0  0  0  0  0  0  0  0  0  0
    2.7760    5.1962    0.0000 C   0  0  0  0  0  0  0  0  0  0  0  0
    5.0260    3.8971    0.0000 C   0  0  0  0  0  0  0  0  0  0  0  0
    2.7760    0.0000    0.0000 C   0  0  0  0  0  0  0  0  0  0  0  0
    3.5260   -1.2990    0.0000 O   0  0  0  0  0  0  0  0  0  0  0  0
    1.2760    0.0000    0.0000 N   0  0  0  0  0  0  0  0  0  0  0  0
    0.3943    1.2135    0.0000 C   0  0  0  0  0  0  0  0  0  0  0  0
   -1.0323    0.7500    0.0000 C   0  0  0  0  0  0  0  0  0  0  0  0
   -1.0323   -0.7500    0.0000 C   0  0  0  0  0  0  0  0  0  0  0  0
    0.3943   -1.2135    0.0000 C   0  0  0  0  0  0  0  0  0  0  0  0
    0.8578   -2.6401    0.0000 C   0  0  0  0  0  0  0  0  0  0  0  0
    2.3250   -2.9520    0.0000 O   0  0  0  0  0  0  0  0  0  0  0  0
   -0.1459   -3.7548    0.0000 N   0  0  0  0  0  0  0  0  0  0  0  0
    0.3177   -5.1814    0.0000 C   0  0  0  0  0  0  0  0  0  0  0  0
   -0.6860   -6.2961    0.0000 C   0  0  0  0  0  0  0  0  0  0  0  0
   -2.1533   -5.9843    0.0000 C   0  0  0  0  0  0  0  0  0  0  0  0
   -3.1570   -7.0990    0.0000 C   0  0  0  0  0  0  0  0  0  0  0  0
   -2.6168   -4.5577    0.0000 C   0  0  0  0  0  0  0  0  0  0  0  0
    1.7849   -5.4933    0.0000 C   0  0  0  0  0  0  0  0  0  0  0  0
    2.7886   -4.3786    0.0000 O   0  0  0  0  0  0  0  0  0  0  0  0
    2.2484   -6.9199    0.0000 N   0  0  0  0  0  0  0  0  0  0  0  0
    3.7156   -7.2317    0.0000 C   0  0  0  0  0  0  0  0  0  0  0  0
    1.2447   -8.0346    0.0000 C   0  0  0  0  0  0  0  0  0  0  0  0
   -0.2225   -7.7227    0.0000 C   0  0  0  0  0  0  0  0  0  0  0  0
   -1.2262   -8.8374    0.0000 C   0  0  0  0  0  0  0  0  0  0  0  0
   -2.6934   -8.5256    0.0000 C   0  0  0  0  0  0  0  0  0  0  0  0
   -0.7627  -10.2640    0.0000 C   0  0  0  0  0  0  0  0  0  0  0  0
    1.7082   -9.4612    0.0000 C   0  0  0  0  0  0  0  0  0  0  0  0
    0.7045  -10.5759    0.0000 O   0  0  0  0  0  0  0  0  0  0  0  0
    3.1755   -9.7730    0.0000 N   0  0  0  0  0  0  0  0  0  0  0  0
    4.2902   -8.7693    0.0000 C   0  0  0  0  0  0  0  0  0  0  0  0
    5.5892   -9.5193    0.0000 C   0  0  0  0  0  0  0  0  0  0  0  0
    5.2773  -10.9866    0.0000 C   0  0  0  0  0  0  0  0  0  0  0  0
    3.7856  -11.1434    0.0000 C   0  0  0  0  0  0  0  0  0  0  0  0
    3.0356  -12.4424    0.0000 C   0  0  0  0  0  0  0  0  0  0  0  0
    1.5356  -12.4424    0.0000 O   0  0  0  0  0  0  0  0  0  0  0  0
    3.7856  -13.7414    0.0000 N   0  0  0  0  0  0  0  0  0  0  0  0
    3.0356  -15.0405    0.0000 C   0  0  0  0  0  0  0  0  0  0  0  0
    3.7856  -16.3395    0.0000 C   0  0  0  0  0  0  0  0  0  0  0  0
    3.0356  -17.6385    0.0000 C   0  0  0  0  0  0  0  0  0  0  0  0
    2.2856  -18.9376    0.0000 C   0  0  0  0  0  0  0  0  0  0  0  0
    1.5356  -15.0405    0.0000 C   0  0  0  0  0  0  0  0  0  0  0  0
    0.7856  -13.7414    0.0000 O   0  0  0  0  0  0  0  0  0  0  0  0
    0.7856  -16.3395    0.0000 O   0  0  0  0  0  0  0  0  0  0  0  0
  2  1  1  1
  2  3  1  0
  3  4  1  0
  4  5  1  0
  4  6  1  0
  2  7  1  0
  7  8  2  0
  7  9  1  0
  9 10  1  0
  9 11  1  0
 11 12  1  6
 12 13  1  0
 13 14  1  0
 13 15  1  0
 11 16  1  0
 16 17  2  0
 16 18  1  0
 18 19  1  0
 19 20  1  0
 20 21  1  0
 21 22  1  0
 22 23  1  6
 23 24  2  0
 23 25  1  0
 25 26  1  0
 26 27  1  6
 27 28  1  0
 28 29  1  0
 28 30  1  0
 26 31  1  0
 31 32  2  0
 31 33  1  0
 33 34  1  0
 33 35  1  0
 35 36  1  6
 36 37  1  0
 37 38  1  0
 37 39  1  0
 35 40  1  0
 40 41  2  0
 40 42  1  0
 42 43  1  0
 43 44  1  0
 44 45  1  0
 45 46  1  0
 46 47  1  1
 47 48  2  0
 47 49  1  0
 49 50  1  0
 50 51  1  1
 51 52  1  0
 52 53  3  0
 50 54  1  0
 54 55  2  0
 54 56  1  0
 22 18  1  0
 46 42  1  0
M  END
$$$$

     RDKit          2D

 56 57  0  0  0  0  0  0  0  0999 V2000
    8.0260    1.2990    0.0000 N   0  0  0  0  0  0  0  0  0  0  0  0
    7.2760    0.0000    0.0000 C   0  0  0  0  0  0  0  0  0  0  0  0
    8.0260   -1.2990    0.0000 C   0  0  0  0  0  0  0  0  0  0  0  0
    9.5260   -1.2990    0.0000 C   0  0  0  0  0  0  0  0  0  0  0  0
   10.2760   -2.5981    0.0000 C   0  0  0  0  0  0  0  0  0  0  0  0
   10.2760    0.0000    0.0000 C   0  0  0  0  0  0  0  0  0  0  0  0
    5.7760    0.0000    0.0000 C   0  0  0  0  0  0  0  0  0  0  0  0
    5.0260   -1.2990    0.0000 O   0  0  0  0  0  0  0  0  0  0  0  0
    5.0260    1.2990    0.0000 N   0  0  0  0  0  0  0  0  0  0  0  0
    5.7760    2.5981    0.0000 C   0  0  0  0  0  0  0  0  0  0  0  0
    3.5260    1.2990    0.0000 C   0  0  0  0  0  0  0  0  0  0  0  0
    2.7760    2.5981    0.0000 C   0  0  0  0  0  0  0  0  0  0  0  0
    3.5260    3.8971    0.0000 C   0  0  0  0  0  0  0  0  0  0  0  0
    2.7760    5.1962    0.0000 C   0  0  0  0  0  0  0  0  0  0  0  0
    5.0260    3.8971    0.0000 C   0  0  0  0  0  0  0  0  0  0  0  0
    2.7760    0.0000    0.0000 C   0  0  0  0  0  0  0  0  0  0  0  0
    3.5260   -1.2990    0.0000 O   0  0  0  0  0  0  0  0  0  0  0  0
    1.2760    0.0000    0.0000 N   0  0  0  0  0  0  0  0  0  0  0  0
    0.3943    1.2135    0.0000 C   0  0  0  0  0  0  0  0  0  0  0  0
   -1.0323    0.7500    0.0000 C   0  0  0  0  0  0  0  0  0  0  0  0
   -1.0323   -0.7500    0.0000 C   0  0  0  0  0  0  0  0  0  0  0  0
    0.3943   -1.2135    0.0000 C   0  0  0  0  0  0  0  0  0  0  0  0
    0.8578   -2.6401    0.0000 C   0  0  0  0  0  0  0  0  0  0  0  0
    2.3250   -2.9520    0.0000 O   0  0  0  0  0  0  0  0  0  0  0  0
   -0.1459   -3.7548    0.0000 N   0  0  0  0  0  0  0  0  0  0  0  0
    0.3177   -5.1814    0.0000 C   0  0  0  0  0  0  0  0  0  0  0  0
   -0.6860   -6.2961    0.0000 C   0  0  0  0  0  0  0  0  0  0  0  0
   -2.1533   -5.9843    0.0000 C   0  0  0  0  0  0  0  0  0  0  0  0
   -3.1570   -7.0990    0.0000 C   0  0  0  0  0  0  0  0  0  0  0  0
   -2.6168   -4.5577    0.0000 C   0  0  0  0  0  0  0  0  0  0  0  0
    1.7849   -5.4933    0.0000 C   0  0  0  0  0  0  0  0  0  0  0  0
    2.7886   -4.3786    0.0000 O   0  0  0  0  0  0  0  0  0  0  0  0
    2.2484   -6.9199    0.0000 N   0  0  0  0  0  0  0  0  0  0  0  0
    3.7156   -7.2317    0.0000 C   0  0  0  0  0  0  0  0  0  0  0  0
    1.2447   -8.0346    0.0000 C   0  0  0  0  0  0  0  0  0  0  0  0
   -0.2225   -7.7227    0.0000 C   0  0  0  0  0  0  0  0  0  0  0  0
   -1.2262   -8.8374    0.0000 C   0  0  0  0  0  0  0  0  0  0  0  0
   -2.6934   -8.5256    0.0000 C   0  0  0  0  0  0  0  0  0  0  0  0
   -0.7627  -10.2640    0.0000 C   0  0  0  0  0  0  0  0  0  0  0  0
    1.7082   -9.4612    0.0000 C   0  0  0  0  0  0  0  0  0  0  0  0
    0.7045  -10.5759    0.0000 O   0  0  0  0  0  0  0  0  0  0  0  0
    3.1755   -9.7730    0.0000 N   0  0  0  0  0  0  0  0  0  0  0  0
    4.2902   -8.7693    0.0000 C   0  0  0  0  0  0  0  0  0  0  0  0
    5.5892   -9.5193    0.0000 C   0  0  0  0  0  0  0  0  0  0  0  0
    5.2773  -10.9866    0.0000 C   0  0  0  0  0  0  0  0  0  0  0  0
    3.7856  -11.1434    0.0000 C   0  0  0  0  0  0  0  0  0  0  0  0
    3.0356  -12.4424    0.0000 C   0  0  0  0  0  0  0  0  0  0  0  0
    1.5356  -12.4424    0.0000 O   0  0  0  0  0  0  0  0  0  0  0  0
    3.7856  -13.7414    0.0000 N   0  0  0  0  0  0  0  0  0  0  0  0
    3.0356  -15.0405    0.0000 C   0  0  0  0  0  0  0  0  0  0  0  0
    3.7856  -16.3395    0.0000 C   0  0  0  0  0  0  0  0  0  0  0  0
    3.0356  -17.6385    0.0000 C   0  0  0  0  0  0  0  0  0  0  0  0
    2.2856  -18.9376    0.0000 C   0  0  0  0  0  0  0  0  0  0  0  0
    1.5356  -15.0405    0.0000 C   0  0  0  0  0  0  0  0  0  0  0  0
    0.7856  -13.7414    0.0000 O   0  0  0  0  0  0  0  0  0  0  0  0
    0.7856  -16.3395    0.0000 O   0  0  0  0  0  0  0  0  0  0  0  0
  2  1  1  6
  2  3  1  0
  3  4  1  0
  4  5  1  0
  4  6  1  0
  2  7  1  0
  7  8  2  0
  7  9  1  0
  9 10  1  0
  9 11  1  0
 11 12  1  6
 12 13  1  0
 13 14  1  0
 13 15  1  0
 11 16  1  0
 16 17  2  0
 16 18  1  0
 18 19  1  0
 19 20  1  0
 20 21  1  0
 21 22  1  0
 22 23  1  6
 23 24  2  0
 23 25  1  0
 25 26  1  0
 26 27  1  6
 27 28  1  0
 28 29  1  0
 28 30  1  0
 26 31  1  0
 31 32  2  0
 31 33  1  0
 33 34  1  0
 33 35  1  0
 35 36  1  6
 36 37  1  0
 37 38  1  0
 37 39  1  0
 35 40  1  0
 40 41  2  0
 40 42  1  0
 42 43  1  0
 43 44  1  0
 44 45  1  0
 45 46  1  0
 46 47  1  1
 47 48  2  0
 47 49  1  0
 49 50  1  0
 50 51  1  1
 51 52  1  0
 52 53  3  0
 50 54  1  0
 54 55  2  0
 54 56  1  0
 22 18  1  0
 46 42  1  0
M  END
$$$$

     RDKit          2D

 40 40  0  0  0  0  0  0  0  0999 V2000
    2.7760    7.7942    0.0000 N   0  0  0  0  0  0  0  0  0  0  0  0
    1.2760    7.7942    0.0000 C   0  0  0  0  0  0  0  0  0  0  0  0
    0.5260    9.0933    0.0000 C   0  0  0  0  0  0  0  0  0  0  0  0
    1.2760   10.3923    0.0000 C   0  0  0  0  0  0  0  0  0  0  0  0
    0.5260   11.6913    0.0000 C   0  0  0  0  0  0  0  0  0  0  0  0
    2.7760   10.3923    0.0000 C   0  0  0  0  0  0  0  0  0  0  0  0
    0.5260    6.4952    0.0000 C   0  0  0  0  0  0  0  0  0  0  0  0
   -0.9740    6.4952    0.0000 O   0  0  0  0  0  0  0  0  0  0  0  0
    1.2760    5.1962    0.0000 N   0  0  0  0  0  0  0  0  0  0  0  0
    0.5260    3.8971    0.0000 C   0  0  0  0  0  0  0  0  0  0  0  0
   -0.9740    3.8971    0.0000 C   0  0  0  0  0  0  0  0  0  0  0  0
   -1.7240    2.5981    0.0000 C   0  0  0  0  0  0  0  0  0  0  0  0
   -3.2240    2.5981    0.0000 C   0  0  0  0  0  0  0  0  0  0  0  0
   -0.9740    1.2990    0.0000 C   0  0  0  0  0  0  0  0  0  0  0  0
    1.2760    2.5981    0.0000 C   0  0  0  0  0  0  0  0  0  0  0  0
    0.5260    1.2990    0.0000 O   0  0  0  0  0  0  0  0  0  0  0  0
    2.7760    2.5981    0.0000 N   0  0  0  0  0  0  0  0  0  0  0  0
    3.5260    3.8971    0.0000 C   0  0  0  0  0  0  0  0  0  0  0  0
    3.5260    1.2990    0.0000 C   0  0  0  0  0  0  0  0  0  0  0  0
    5.0260    1.2990    0.0000 C   0  0  0  0  0  0  0  0  0  0  0  0
    5.7760    2.5981    0.0000 C   0  0  0  0  0  0  0  0  0  0  0  0
    7.2760    2.5981    0.0000 C   0  0  0  0  0  0  0  0  0  0  0  0
    5.0260    3.8971    0.0000 C   0  0  0  0  0  0  0  0  0  0  0  0
    2.7760    0.0000    0.0000 C   0  0  0  0  0  0  0  0  0  0  0  0
    1.2760    0.0000    0.0000 O   0  0  0  0  0  0  0  0  0  0  0  0
    3.5260   -1.2990    0.0000 N   0  0  0  0  0  0  0  0  0  0  0  0
    5.0178   -1.4558    0.0000 C   0  0  0  0  0  0  0  0  0  0  0  0
    5.3296   -2.9231    0.0000 C   0  0  0  0  0  0  0  0  0  0  0  0
    4.0306   -3.6731    0.0000 C   0  0  0  0  0  0  0  0  0  0  0  0
    2.9159   -2.6694    0.0000 C   0  0  0  0  0  0  0  0  0  0  0  0
    1.4486   -2.9812    0.0000 C   0  0  0  0  0  0  0  0  0  0  0  0
    0.4450   -1.8665    0.0000 O   0  0  0  0  0  0  0  0  0  0  0  0
    0.9851   -4.4078    0.0000 N   0  0  0  0  0  0  0  0  0  0  0  0
   -0.4821   -4.7197    0.0000 C   0  0  0  0  0  0  0  0  0  0  0  0
   -0.9456   -6.1463    0.0000 C   0  0  0  0  0  0  0  0  0  0  0  0
   -2.4128   -6.4581    0.0000 C   0  0  0  0  0  0  0  0  0  0  0  0
   -3.8801   -6.7700    0.0000 C   0  0  0  0  0  0  0  0  0  0  0  0
   -1.4858   -3.6050    0.0000 C   0  0  0  0  0  0  0  0  0  0  0  0
   -1.0223   -2.1784    0.0000 O   0  0  0  0  0  0  0  0  0  0  0  0
   -2.9530   -3.9168    0.0000 O   0  0  0  0  0  0  0  0  0  0  0  0
  2  1  1  6
  2  3  1  0
  3  4  1  0
  4  5  1  0
  4  6  1  0
  2  7  1  0
  7  8  2  0
  7  9  1  0
  9 10  1  0
 10 11  1  1
 11 12  1  0
 12 13  1  0
 12 14  1  0
 10 15  1  0
 15 16  2  0
 15 17  1  0
 17 18  1  0
 17 19  1  0
 19 20  1  1
 20 21  1  0
 21 22  1  0
 21 23  1  0
 19 24  1  0
 24 25  2  0
 24 26  1  0
 26 27  1  0
 27 28  1  0
 28 29  1  0
 29 30  1  0
 30 31  1  1
 31 32  2  0
 31 33  1  0
 33 34  1  0
 34 35  1  1
 35 36  1  0
 36 37  3  0
 34 38  1  0
 38 39  2  0
 38 40  1  0
 30 26  1  0
M  END
$$$$

     RDKit          2D

 40 40  0  0  0  0  0  0  0  0999 V2000
    2.7760    7.7942    0.0000 N   0  0  0  0  0  0  0  0  0  0  0  0
    1.2760    7.7942    0.0000 C   0  0  0  0  0  0  0  0  0  0  0  0
    0.5260    9.0933    0.0000 C   0  0  0  0  0  0  0  0  0  0  0  0
    1.2760   10.3923    0.0000 C   0  0  0  0  0  0  0  0  0  0  0  0
    0.5260   11.6913    0.0000 C   0  0  0  0  0  0  0  0  0  0  0  0
    2.7760   10.3923    0.0000 C   0  0  0  0  0  0  0  0  0  0  0  0
    0.5260    6.4952    0.0000 C   0  0  0  0  0  0  0  0  0  0  0  0
   -0.9740    6.4952    0.0000 O   0  0  0  0  0  0  0  0  0  0  0  0
    1.2760    5.1962    0.0000 N   0  0  0  0  0  0  0  0  0  0  0  0
    0.5260    3.8971    0.0000 C   0  0  0  0  0  0  0  0  0  0  0  0
   -0.9740    3.8971    0.0000 C   0  0  0  0  0  0  0  0  0  0  0  0
   -1.7240    2.5981    0.0000 C   0  0  0  0  0  0  0  0  0  0  0  0
   -3.2240    2.5981    0.0000 C   0  0  0  0  0  0  0  0  0  0  0  0
   -0.9740    1.2990    0.0000 C   0  0  0  0  0  0  0  0  0  0  0  0
    1.2760    2.5981    0.0000 C   0  0  0  0  0  0  0  0  0  0  0  0
    0.5260    1.2990    0.0000 O   0  0  0  0  0  0  0  0  0  0  0  0
    2.7760    2.5981    0.0000 N   0  0  0  0  0  0  0  0  0  0  0  0
    3.5260    3.8971    0.0000 C   0  0  0  0  0  0  0  0  0  0  0  0
    3.5260    1.2990    0.0000 C   0  0  0  0  0  0  0  0  0  0  0  0
    5.0260    1.2990    0.0000 C   0  0  0  0  0  0  0  0  0  0  0  0
    5.7760    2.5981    0.0000 C   0  0  0  0  0  0  0  0  0  0  0  0
    7.2760    2.5981    0.0000 C   0  0  0  0  0  0  0  0  0  0  0  0
    5.0260    3.8971    0.0000 C   0  0  0  0  0  0  0  0  0  0  0  0
    2.7760    0.0000    0.0000 C   0  0  0  0  0  0  0  0  0  0  0  0
    1.2760    0.0000    0.0000 O   0  0  0  0  0  0  0  0  0  0  0  0
    3.5260   -1.2990    0.0000 N   0  0  0  0  0  0  0  0  0  0  0  0
    5.0178   -1.4558    0.0000 C   0  0  0  0  0  0  0  0  0  0  0  0
    5.3296   -2.9231    0.0000 C   0  0  0  0  0  0  0  0  0  0  0  0
    4.0306   -3.6731    0.0000 C   0  0  0  0  0  0  0  0  0  0  0  0
    2.9159   -2.6694    0.0000 C   0  0  0  0  0  0  0  0  0  0  0  0
    1.4486   -2.9812    0.0000 C   0  0  0  0  0  0  0  0  0  0  0  0
    0.4450   -1.8665    0.0000 O   0  0  0  0  0  0  0  0  0  0  0  0
    0.9851   -4.4078    0.0000 N   0  0  0  0  0  0  0  0  0  0  0  0
   -0.4821   -4.7197    0.0000 C   0  0  0  0  0  0  0  0  0  0  0  0
   -0.9456   -6.1463    0.0000 C   0  0  0  0  0  0  0  0  0  0  0  0
   -2.4128   -6.4581    0.0000 C   0  0  0  0  0  0  0  0  0  0  0  0
   -3.8801   -6.7700    0.0000 C   0  0  0  0  0  0  0  0  0  0  0  0
   -1.4858   -3.6050    0.0000 C   0  0  0  0  0  0  0  0  0  0  0  0
   -1.0223   -2.1784    0.0000 O   0  0  0  0  0  0  0  0  0  0  0  0
   -2.9530   -3.9168    0.0000 O   0  0  0  0  0  0  0  0  0  0  0  0
  2  1  1  1
  2  3  1  0
  3  4  1  0
  4  5  1  0
  4  6  1  0
  2  7  1  0
  7  8  2  0
  7  9  1  0
  9 10  1  0
 10 11  1  1
 11 12  1  0
 12 13  1  0
 12 14  1  0
 10 15  1  0
 15 16  2  0
 15 17  1  0
 17 18  1  0
 17 19  1  0
 19 20  1  1
 20 21  1  0
 21 22  1  0
 21 23  1  0
 19 24  1  0
 24 25  2  0
 24 26  1  0
 26 27  1  0
 27 28  1  0
 28 29  1  0
 29 30  1  0
 30 31  1  1
 31 32  2  0
 31 33  1  0
 33 34  1  0
 34 35  1  1
 35 36  1  0
 36 37  3  0
 34 38  1  0
 38 39  2  0
 38 40  1  0
 30 26  1  0
M  END
$$$$

     RDKit          2D

 39 39  0  0  0  0  0  0  0  0999 V2000
    2.7760    7.7942    0.0000 N   0  0  0  0  0  0  0  0  0  0  0  0
    1.2760    7.7942    0.0000 C   0  0  0  0  0  0  0  0  0  0  0  0
    0.5260    9.0933    0.0000 C   0  0  0  0  0  0  0  0  0  0  0  0
    1.2760   10.3923    0.0000 C   0  0  0  0  0  0  0  0  0  0  0  0
   -0.9740    9.0933    0.0000 C   0  0  0  0  0  0  0  0  0  0  0  0
    0.5260    6.4952    0.0000 C   0  0  0  0  0  0  0  0  0  0  0  0
   -0.9740    6.4952    0.0000 O   0  0  0  0  0  0  0  0  0  0  0  0
    1.2760    5.1962    0.0000 N   0  0  0  0  0  0  0  0  0  0  0  0
    0.5260    3.8971    0.0000 C   0  0  0  0  0  0  0  0  0  0  0  0
   -0.9740    3.8971    0.0000 C   0  0  0  0  0  0  0  0  0  0  0  0
   -1.7240    2.5981    0.0000 C   0  0  0  0  0  0  0  0  0  0  0  0
   -3.2240    2.5981    0.0000 C   0  0  0  0  0  0  0  0  0  0  0  0
   -0.9740    1.2990    0.0000 C   0  0  0  0  0  0  0  0  0  0  0  0
    1.2760    2.5981    0.0000 C   0  0  0  0  0  0  0  0  0  0  0  0
    0.5260    1.2990    0.0000 O   0  0  0  0  0  0  0  0  0  0  0  0
    2.7760    2.5981    0.0000 N   0  0  0  0  0  0  0  0  0  0  0  0
    3.5260    3.8971    0.0000 C   0  0  0  0  0  0  0  0  0  0  0  0
    3.5260    1.2990    0.0000 C   0  0  0  0  0  0  0  0  0  0  0  0
    5.0260    1.2990    0.0000 C   0  0  0  0  0  0  0  0  0  0  0  0
    5.7760    2.5981    0.0000 C   0  0  0  0  0  0  0  0  0  0  0  0
    7.2760    2.5981    0.0000 C   0  0  0  0  0  0  0  0  0  0  0  0
    5.0260    3.8971    0.0000 C   0  0  0  0  0  0  0  0  0  0  0  0
    2.7760    0.0000    0.0000 C   0  0  0  0  0  0  0  0  0  0  0  0
    1.2760    0.0000    0.0000 O   0  0  0  0  0  0  0  0  0  0  0  0
    3.5260   -1.2990    0.0000 N   0  0  0  0  0  0  0  0  0  0  0  0
    5.0178   -1.4558    0.0000 C   0  0  0  0  0  0  0  0  0  0  0  0
    5.3296   -2.9231    0.0000 C   0  0  0  0  0  0  0  0  0  0  0  0
    4.0306   -3.6731    0.0000 C   0  0  0  0  0  0  0  0  0  0  0  0
    2.9159   -2.6694    0.0000 C   0  0  0  0  0  0  0  0  0  0  0  0
    1.4486   -2.9812    0.0000 C   0  0  0  0  0  0  0  0  0  0  0  0
    0.4450   -1.8665    0.0000 O   0  0  0  0  0  0  0  0  0  0  0  0
    0.9851   -4.4078    0.0000 N   0  0  0  0  0  0  0  0  0  0  0  0
   -0.4821   -4.7197    0.0000 C   0  0  0  0  0  0  0  0  0  0  0  0
   -0.9456   -6.1463    0.0000 C   0  0  0  0  0  0  0  0  0  0  0  0
   -2.4128   -6.4581    0.0000 C   0  0  0  0  0  0  0  0  0  0  0  0
   -3.8801   -6.7700    0.0000 C   0  0  0  0  0  0  0  0  0  0  0  0
   -1.4858   -3.6050    0.0000 C   0  0  0  0  0  0  0  0  0  0  0  0
   -1.0223   -2.1784    0.0000 O   0  0  0  0  0  0  0  0  0  0  0  0
   -2.9530   -3.9168    0.0000 O   0  0  0  0  0  0  0  0  0  0  0  0
  2  1  1  6
  2  3  1  0
  3  4  1  0
  3  5  1  0
  2  6  1  0
  6  7  2  0
  6  8  1  0
  8  9  1  0
  9 10  1  1
 10 11  1  0
 11 12  1  0
 11 13  1  0
  9 14  1  0
 14 15  2  0
 14 16  1  0
 16 17  1  0
 16 18  1  0
 18 19  1  1
 19 20  1  0
 20 21  1  0
 20 22  1  0
 18 23  1  0
 23 24  2  0
 23 25  1  0
 25 26  1  0
 26 27  1  0
 27 28  1  0
 28 29  1  0
 29 30  1  1
 30 31  2  0
 30 32  1  0
 32 33  1  0
 33 34  1  1
 34 35  1  0
 35 36  3  0
 33 37  1  0
 37 38  2  0
 37 39  1  0
 29 25  1  0
M  END
$$$$

     RDKit          2D

 39 39  0  0  0  0  0  0  0  0999 V2000
    2.7760    7.7942    0.0000 N   0  0  0  0  0  0  0  0  0  0  0  0
    1.2760    7.7942    0.0000 C   0  0  0  0  0  0  0  0  0  0  0  0
    0.5260    9.0933    0.0000 C   0  0  0  0  0  0  0  0  0  0  0  0
    1.2760   10.3923    0.0000 C   0  0  0  0  0  0  0  0  0  0  0  0
   -0.9740    9.0933    0.0000 C   0  0  0  0  0  0  0  0  0  0  0  0
    0.5260    6.4952    0.0000 C   0  0  0  0  0  0  0  0  0  0  0  0
   -0.9740    6.4952    0.0000 O   0  0  0  0  0  0  0  0  0  0  0  0
    1.2760    5.1962    0.0000 N   0  0  0  0  0  0  0  0  0  0  0  0
    0.5260    3.8971    0.0000 C   0  0  0  0  0  0  0  0  0  0  0  0
   -0.9740    3.8971    0.0000 C   0  0  0  0  0  0  0  0  0  0  0  0
   -1.7240    2.5981    0.0000 C   0  0  0  0  0  0  0  0  0  0  0  0
   -3.2240    2.5981    0.0000 C   0  0  0  0  0  0  0  0  0  0  0  0
   -0.9740    1.2990    0.0000 C   0  0  0  0  0  0  0  0  0  0  0  0
    1.2760    2.5981    0.0000 C   0  0  0  0  0  0  0  0  0  0  0  0
    0.5260    1.2990    0.0000 O   0  0  0  0  0  0  0  0  0  0  0  0
    2.7760    2.5981    0.0000 N   0  0  0  0  0  0  0  0  0  0  0  0
    3.5260    3.8971    0.0000 C   0  0  0  0  0  0  0  0  0  0  0  0
    3.5260    1.2990    0.0000 C   0  0  0  0  0  0  0  0  0  0  0  0
    5.0260    1.2990    0.0000 C   0  0  0  0  0  0  0  0  0  0  0  0
    5.7760    2.5981    0.0000 C   0  0  0  0  0  0  0  0  0  0  0  0
    7.2760    2.5981    0.0000 C   0  0  0  0  0  0  0  0  0  0  0  0
    5.0260    3.8971    0.0000 C   0  0  0  0  0  0  0  0  0  0  0  0
    2.7760    0.0000    0.0000 C   0  0  0  0  0  0  0  0  0  0  0  0
    1.2760    0.0000    0.0000 O   0  0  0  0  0  0  0  0  0  0  0  0
    3.5260   -1.2990    0.0000 N   0  0  0  0  0  0  0  0  0  0  0  0
    5.0178   -1.4558    0.0000 C   0  0  0  0  0  0  0  0  0  0  0  0
    5.3296   -2.9231    0.0000 C   0  0  0  0  0  0  0  0  0  0  0  0
    4.0306   -3.6731    0.0000 C   0  0  0  0  0  0  0  0  0  0  0  0
    2.9159   -2.6694    0.0000 C   0  0  0  0  0  0  0  0  0  0  0  0
    1.4486   -2.9812    0.0000 C   0  0  0  0  0  0  0  0  0  0  0  0
    0.4450   -1.8665    0.0000 O   0  0  0  0  0  0  0  0  0  0  0  0
    0.9851   -4.4078    0.0000 N   0  0  0  0  0  0  0  0  0  0  0  0
   -0.4821   -4.7197    0.0000 C   0  0  0  0  0  0  0  0  0  0  0  0
   -0.9456   -6.1463    0.0000 C   0  0  0  0  0  0  0  0  0  0  0  0
   -2.4128   -6.4581    0.0000 C   0  0  0  0  0  0  0  0  0  0  0  0
   -3.8801   -6.7700    0.0000 C   0  0  0  0  0  0  0  0  0  0  0  0
   -1.4858   -3.6050    0.0000 C   0  0  0  0  0  0  0  0  0  0  0  0
   -1.0223   -2.1784    0.0000 O   0  0  0  0  0  0  0  0  0  0  0  0
   -2.9530   -3.9168    0.0000 O   0  0  0  0  0  0  0  0  0  0  0  0
  2  1  1  1
  2  3  1  0
  3  4  1  0
  3  5  1  0
  2  6  1  0
  6  7  2  0
  6  8  1  0
  8  9  1  0
  9 10  1  1
 10 11  1  0
 11 12  1  0
 11 13  1  0
  9 14  1  0
 14 15  2  0
 14 16  1  0
 16 17  1  0
 16 18  1  0
 18 19  1  1
 19 20  1  0
 20 21  1  0
 20 22  1  0
 18 23  1  0
 23 24  2  0
 23 25  1  0
 25 26  1  0
 26 27  1  0
 27 28  1  0
 28 29  1  0
 29 30  1  1
 30 31  2  0
 30 32  1  0
 32 33  1  0
 33 34  1  1
 34 35  1  0
 35 36  3  0
 33 37  1  0
 37 38  2  0
 37 39  1  0
 29 25  1  0
M  END
$$$$

     RDKit          2D

 41 41  0  0  0  0  0  0  0  0999 V2000
    2.7760    7.7942    0.0000 N   0  0  0  0  0  0  0  0  0  0  0  0
    3.5260    9.0933    0.0000 C   0  0  0  0  0  0  0  0  0  0  0  0
    1.2760    7.7942    0.0000 C   0  0  0  0  0  0  0  0  0  0  0  0
    0.5260    9.0933    0.0000 C   0  0  0  0  0  0  0  0  0  0  0  0
    1.2760   10.3923    0.0000 C   0  0  0  0  0  0  0  0  0  0  0  0
    0.5260   11.6913    0.0000 C   0  0  0  0  0  0  0  0  0  0  0  0
    2.7760   10.3923    0.0000 C   0  0  0  0  0  0  0  0  0  0  0  0
    0.5260    6.4952    0.0000 C   0  0  0  0  0  0  0  0  0  0  0  0
   -0.9740    6.4952    0.0000 O   0  0  0  0  0  0  0  0  0  0  0  0
    1.2760    5.1962    0.0000 N   0  0  0  0  0  0  0  0  0  0  0  0
    0.5260    3.8971    0.0000 C   0  0  0  0  0  0  0  0  0  0  0  0
   -0.9740    3.8971    0.0000 C   0  0  0  0  0  0  0  0  0  0  0  0
   -1.7240    2.5981    0.0000 C   0  0  0  0  0  0  0  0  0  0  0  0
   -3.2240    2.5981    0.0000 C   0  0  0  0  0  0  0  0  0  0  0  0
   -0.9740    1.2990    0.0000 C   0  0  0  0  0  0  0  0  0  0  0  0
    1.2760    2.5981    0.0000 C   0  0  0  0  0  0  0  0  0  0  0  0
    0.5260    1.2990    0.0000 O   0  0  0  0  0  0  0  0  0  0  0  0
    2.7760    2.5981    0.0000 N   0  0  0  0  0  0  0  0  0  0  0  0
    3.5260    3.8971    0.0000 C   0  0  0  0  0  0  0  0  0  0  0  0
    3.5260    1.2990    0.0000 C   0  0  0  0  0  0  0  0  0  0  0  0
    5.0260    1.2990    0.0000 C   0  0  0  0  0  0  0  0  0  0  0  0
    5.7760    2.5981    0.0000 C   0  0  0  0  0  0  0  0  0  0  0  0
    7.2760    2.5981    0.0000 C   0  0  0  0  0  0  0  0  0  0  0  0
    5.0260    3.8971    0.0000 C   0  0  0  0  0  0  0  0  0  0  0  0
    2.7760    0.0000    0.0000 C   0  0  0  0  0  0  0  0  0  0  0  0
    1.2760    0.0000    0.0000 O   0  0  0  0  0  0  0  0  0  0  0  0
    3.5260   -1.2990    0.0000 N   0  0  0  0  0  0  0  0  0  0  0  0
    5.0178   -1.4558    0.0000 C   0  0  0  0  0  0  0  0  0  0  0  0
    5.3296   -2.9231    0.0000 C   0  0  0  0  0  0  0  0  0  0  0  0
    4.0306   -3.6731    0.0000 C   0  0  0  0  0  0  0  0  0  0  0  0
    2.9159   -2.6694    0.0000 C   0  0  0  0  0  0  0  0  0  0  0  0
    1.4486   -2.9812    0.0000 C   0  0  0  0  0  0  0  0  0  0  0  0
    0.4450   -1.8665    0.0000 O   0  0  0  0  0  0  0  0  0  0  0  0
    0.9851   -4.4078    0.0000 N   0  0  0  0  0  0  0  0  0  0  0  0
   -0.4821   -4.7197    0.0000 C   0  0  0  0  0  0  0  0  0  0  0  0
   -0.9456   -6.1463    0.0000 C   0  0  0  0  0  0  0  0  0  0  0  0
   -2.4128   -6.4581    0.0000 C   0  0  0  0  0  0  0  0  0  0  0  0
   -3.8801   -6.7700    0.0000 C   0  0  0  0  0  0  0  0  0  0  0  0
   -1.4858   -3.6050    0.0000 C   0  0  0  0  0  0  0  0  0  0  0  0
   -1.0223   -2.1784    0.0000 O   0  0  0  0  0  0  0  0  0  0  0  0
   -2.9530   -3.9168    0.0000 O   0  0  0  0  0  0  0  0  0  0  0  0
  1  2  1  0
  1  3  1  0
  3  4  1  6
  4  5  1  0
  5  6  1  0
  5  7  1  0
  3  8  1  0
  8  9  2  0
  8 10  1  0
 10 11  1  0
 11 12  1  1
 12 13  1  0
 13 14  1  0
 13 15  1  0
 11 16  1  0
 16 17  2  0
 16 18  1  0
 18 19  1  0
 18 20  1  0
 20 21  1  1
 21 22  1  0
 22 23  1  0
 22 24  1  0
 20 25  1  0
 25 26  2  0
 25 27  1  0
 27 28  1  0
 28 29  1  0
 29 30  1  0
 30 31  1  0
 31 32  1  1
 32 33  2  0
 32 34  1  0
 34 35  1  0
 35 36  1  1
 36 37  1  0
 37 38  3  0
 35 39  1  0
 39 40  2  0
 39 41  1  0
 31 27  1  0
M  END
$$$$

     RDKit          2D

 41 41  0  0  0  0  0  0  0  0999 V2000
    2.7760    7.7942    0.0000 N   0  0  0  0  0  0  0  0  0  0  0  0
    3.5260    9.0933    0.0000 C   0  0  0  0  0  0  0  0  0  0  0  0
    1.2760    7.7942    0.0000 C   0  0  0  0  0  0  0  0  0  0  0  0
    0.5260    9.0933    0.0000 C   0  0  0  0  0  0  0  0  0  0  0  0
    1.2760   10.3923    0.0000 C   0  0  0  0  0  0  0  0  0  0  0  0
    0.5260   11.6913    0.0000 C   0  0  0  0  0  0  0  0  0  0  0  0
    2.7760   10.3923    0.0000 C   0  0  0  0  0  0  0  0  0  0  0  0
    0.5260    6.4952    0.0000 C   0  0  0  0  0  0  0  0  0  0  0  0
   -0.9740    6.4952    0.0000 O   0  0  0  0  0  0  0  0  0  0  0  0
    1.2760    5.1962    0.0000 N   0  0  0  0  0  0  0  0  0  0  0  0
    0.5260    3.8971    0.0000 C   0  0  0  0  0  0  0  0  0  0  0  0
   -0.9740    3.8971    0.0000 C   0  0  0  0  0  0  0  0  0  0  0  0
   -1.7240    2.5981    0.0000 C   0  0  0  0  0  0  0  0  0  0  0  0
   -3.2240    2.5981    0.0000 C   0  0  0  0  0  0  0  0  0  0  0  0
   -0.9740    1.2990    0.0000 C   0  0  0  0  0  0  0  0  0  0  0  0
    1.2760    2.5981    0.0000 C   0  0  0  0  0  0  0  0  0  0  0  0
    0.5260    1.2990    0.0000 O   0  0  0  0  0  0  0  0  0  0  0  0
    2.7760    2.5981    0.0000 N   0  0  0  0  0  0  0  0  0  0  0  0
    3.5260    3.8971    0.0000 C   0  0  0  0  0  0  0  0  0  0  0  0
    3.5260    1.2990    0.0000 C   0  0  0  0  0  0  0  0  0  0  0  0
    5.0260    1.2990    0.0000 C   0  0  0  0  0  0  0  0  0  0  0  0
    5.7760    2.5981    0.0000 C   0  0  0  0  0  0  0  0  0  0  0  0
    7.2760    2.5981    0.0000 C   0  0  0  0  0  0  0  0  0  0  0  0
    5.0260    3.8971    0.0000 C   0  0  0  0  0  0  0  0  0  0  0  0
    2.7760    0.0000    0.0000 C   0  0  0  0  0  0  0  0  0  0  0  0
    1.2760    0.0000    0.0000 O   0  0  0  0  0  0  0  0  0  0  0  0
    3.5260   -1.2990    0.0000 N   0  0  0  0  0  0  0  0  0  0  0  0
    5.0178   -1.4558    0.0000 C   0  0  0  0  0  0  0  0  0  0  0  0
    5.3296   -2.9231    0.0000 C   0  0  0  0  0  0  0  0  0  0  0  0
    4.0306   -3.6731    0.0000 C   0  0  0  0  0  0  0  0  0  0  0  0
    2.9159   -2.6694    0.0000 C   0  0  0  0  0  0  0  0  0  0  0  0
    1.4486   -2.9812    0.0000 C   0  0  0  0  0  0  0  0  0  0  0  0
    0.4450   -1.8665    0.0000 O   0  0  0  0  0  0  0  0  0  0  0  0
    0.9851   -4.4078    0.0000 N   0  0  0  0  0  0  0  0  0  0  0  0
   -0.4821   -4.7197    0.0000 C   0  0  0  0  0  0  0  0  0  0  0  0
   -0.9456   -6.1463    0.0000 C   0  0  0  0  0  0  0  0  0  0  0  0
   -2.4128   -6.4581    0.0000 C   0  0  0  0  0  0  0  0  0  0  0  0
   -3.8801   -6.7700    0.0000 C   0  0  0  0  0  0  0  0  0  0  0  0
   -1.4858   -3.6050    0.0000 C   0  0  0  0  0  0  0  0  0  0  0  0
   -1.0223   -2.1784    0.0000 O   0  0  0  0  0  0  0  0  0  0  0  0
   -2.9530   -3.9168    0.0000 O   0  0  0  0  0  0  0  0  0  0  0  0
  1  2  1  0
  1  3  1  0
  3  4  1  1
  4  5  1  0
  5  6  1  0
  5  7  1  0
  3  8  1  0
  8  9  2  0
  8 10  1  0
 10 11  1  0
 11 12  1  1
 12 13  1  0
 13 14  1  0
 13 15  1  0
 11 16  1  0
 16 17  2  0
 16 18  1  0
 18 19  1  0
 18 20  1  0
 20 21  1  1
 21 22  1  0
 22 23  1  0
 22 24  1  0
 20 25  1  0
 25 26  2  0
 25 27  1  0
 27 28  1  0
 28 29  1  0
 29 30  1  0
 30 31  1  0
 31 32  1  1
 32 33  2  0
 32 34  1  0
 34 35  1  0
 35 36  1  1
 36 37  1  0
 37 38  3  0
 35 39  1  0
 39 40  2  0
 39 41  1  0
 31 27  1  0
M  END
$$$$

     RDKit          2D

 43 44  0  0  0  0  0  0  0  0999 V2000
    8.2500   -6.4952    0.0000 N   0  0  0  0  0  0  0  0  0  0  0  0
    7.5000   -5.1962    0.0000 C   0  0  0  0  0  0  0  0  0  0  0  0
    8.2500   -3.8971    0.0000 C   0  0  0  0  0  0  0  0  0  0  0  0
    9.7500   -3.8971    0.0000 C   0  0  0  0  0  0  0  0  0  0  0  0
   10.5000   -2.5981    0.0000 C   0  0  0  0  0  0  0  0  0  0  0  0
   12.0000   -2.5981    0.0000 C   0  0  0  0  0  0  0  0  0  0  0  0
   12.7500   -3.8971    0.0000 C   0  0  0  0  0  0  0  0  0  0  0  0
   12.0000   -5.1962    0.0000 C   0  0  0  0  0  0  0  0  0  0  0  0
   10.5000   -5.1962    0.0000 C   0  0  0  0  0  0  0  0  0  0  0  0
    6.0000   -5.1962    0.0000 C   0  0  0  0  0  0  0  0  0  0  0  0
    5.2500   -3.8971    0.0000 O   0  0  0  0  0  0  0  0  0  0  0  0
    5.2500   -6.4952    0.0000 N   0  0  0  0  0  0  0  0  0  0  0  0
    3.7500   -6.4952    0.0000 C   0  0  0  0  0  0  0  0  0  0  0  0
    3.0000   -5.1962    0.0000 C   0  0  0  0  0  0  0  0  0  0  0  0
    1.5000   -5.1962    0.0000 C   0  0  0  0  0  0  0  0  0  0  0  0
    0.7500   -3.8971    0.0000 C   0  0  0  0  0  0  0  0  0  0  0  0
    0.7500   -6.4952    0.0000 C   0  0  0  0  0  0  0  0  0  0  0  0
    3.0000   -7.7942    0.0000 C   0  0  0  0  0  0  0  0  0  0  0  0
    1.5000   -7.7942    0.0000 O   0  0  0  0  0  0  0  0  0  0  0  0
    3.7500   -9.0933    0.0000 N   0  0  0  0  0  0  0  0  0  0  0  0
    5.2500   -9.0933    0.0000 C   0  0  0  0  0  0  0  0  0  0  0  0
    3.0000  -10.3923    0.0000 C   0  0  0  0  0  0  0  0  0  0  0  0
    3.7500  -11.6913    0.0000 C   0  0  0  0  0  0  0  0  0  0  0  0
    5.2500  -11.6913    0.0000 C   0  0  0  0  0  0  0  0  0  0  0  0
    6.0000  -12.9904    0.0000 C   0  0  0  0  0  0  0  0  0  0  0  0
    6.0000  -10.3923    0.0000 C   0  0  0  0  0  0  0  0  0  0  0  0
    1.5000  -10.3923    0.0000 C   0  0  0  0  0  0  0  0  0  0  0  0
    0.7500   -9.0933    0.0000 O   0  0  0  0  0  0  0  0  0  0  0  0
    0.7500  -11.6913    0.0000 N   0  0  0  0  0  0  0  0  0  0  0  0
    1.3601  -13.0617    0.0000 C   0  0  0  0  0  0  0  0  0  0  0  0
    0.2454  -14.0654    0.0000 C   0  0  0  0  0  0  0  0  0  0  0  0
   -1.0537  -13.3154    0.0000 C   0  0  0  0  0  0  0  0  0  0  0  0
   -0.7418  -11.8481    0.0000 C   0  0  0  0  0  0  0  0  0  0  0  0
   -1.7455  -10.7334    0.0000 C   0  0  0  0  0  0  0  0  0  0  0  0
   -1.2820   -9.3068    0.0000 O   0  0  0  0  0  0  0  0  0  0  0  0
   -3.2127  -11.0453    0.0000 N   0  0  0  0  0  0  0  0  0  0  0  0
   -4.2164   -9.9306    0.0000 C   0  0  0  0  0  0  0  0  0  0  0  0
   -5.6836  -10.2424    0.0000 C   0  0  0  0  0  0  0  0  0  0  0  0
   -6.6873   -9.1277    0.0000 C   0  0  0  0  0  0  0  0  0  0  0  0
   -7.6910   -8.0130    0.0000 C   0  0  0  0  0  0  0  0  0  0  0  0
   -3.7529   -8.5040    0.0000 C   0  0  0  0  0  0  0  0  0  0  0  0
   -2.2856   -8.1921    0.0000 O   0  0  0  0  0  0  0  0  0  0  0  0
   -4.7566   -7.3893    0.0000 O   0  0  0  0  0  0  0  0  0  0  0  0
  2  1  1  6
  2  3  1  0
  3  4  1  0
  4  5  2  0
  5  6  1  0
  6  7  2  0
  7  8  1  0
  8  9  2  0
  2 10  1  0
 10 11  2  0
 10 12  1  0
 12 13  1  0
 13 14  1  1
 14 15  1  0
 15 16  1  0
 15 17  1  0
 13 18  1  0
 18 19  2  0
 18 20  1  0
 20 21  1  0
 20 22  1  0
 22 23  1  1
 23 24  1  0
 24 25  1  0
 24 26  1  0
 22 27  1  0
 27 28  2  0
 27 29  1  0
 29 30  1  0
 30 31  1  0
 31 32  1  0
 32 33  1  0
 33 34  1  1
 34 35  2  0
 34 36  1  0
 36 37  1  0
 37 38  1  1
 38 39  1  0
 39 40  3  0
 37 41  1  0
 41 42  2  0
 41 43  1  0
  9  4  1  0
 33 29  1  0
M  END
$$$$

     RDKit          2D

 43 44  0  0  0  0  0  0  0  0999 V2000
    8.2500   -6.4952    0.0000 N   0  0  0  0  0  0  0  0  0  0  0  0
    7.5000   -5.1962    0.0000 C   0  0  0  0  0  0  0  0  0  0  0  0
    8.2500   -3.8971    0.0000 C   0  0  0  0  0  0  0  0  0  0  0  0
    9.7500   -3.8971    0.0000 C   0  0  0  0  0  0  0  0  0  0  0  0
   10.5000   -2.5981    0.0000 C   0  0  0  0  0  0  0  0  0  0  0  0
   12.0000   -2.5981    0.0000 C   0  0  0  0  0  0  0  0  0  0  0  0
   12.7500   -3.8971    0.0000 C   0  0  0  0  0  0  0  0  0  0  0  0
   12.0000   -5.1962    0.0000 C   0  0  0  0  0  0  0  0  0  0  0  0
   10.5000   -5.1962    0.0000 C   0  0  0  0  0  0  0  0  0  0  0  0
    6.0000   -5.1962    0.0000 C   0  0  0  0  0  0  0  0  0  0  0  0
    5.2500   -3.8971    0.0000 O   0  0  0  0  0  0  0  0  0  0  0  0
    5.2500   -6.4952    0.0000 N   0  0  0  0  0  0  0  0  0  0  0  0
    3.7500   -6.4952    0.0000 C   0  0  0  0  0  0  0  0  0  0  0  0
    3.0000   -5.1962    0.0000 C   0  0  0  0  0  0  0  0  0  0  0  0
    1.5000   -5.1962    0.0000 C   0  0  0  0  0  0  0  0  0  0  0  0
    0.7500   -3.8971    0.0000 C   0  0  0  0  0  0  0  0  0  0  0  0
    0.7500   -6.4952    0.0000 C   0  0  0  0  0  0  0  0  0  0  0  0
    3.0000   -7.7942    0.0000 C   0  0  0  0  0  0  0  0  0  0  0  0
    1.5000   -7.7942    0.0000 O   0  0  0  0  0  0  0  0  0  0  0  0
    3.7500   -9.0933    0.0000 N   0  0  0  0  0  0  0  0  0  0  0  0
    5.2500   -9.0933    0.0000 C   0  0  0  0  0  0  0  0  0  0  0  0
    3.0000  -10.3923    0.0000 C   0  0  0  0  0  0  0  0  0  0  0  0
    3.7500  -11.6913    0.0000 C   0  0  0  0  0  0  0  0  0  0  0  0
    5.2500  -11.6913    0.0000 C   0  0  0  0  0  0  0  0  0  0  0  0
    6.0000  -12.9904    0.0000 C   0  0  0  0  0  0  0  0  0  0  0  0
    6.0000  -10.3923    0.0000 C   0  0  0  0  0  0  0  0  0  0  0  0
    1.5000  -10.3923    0.0000 C   0  0  0  0  0  0  0  0  0  0  0  0
    0.7500   -9.0933    0.0000 O   0  0  0  0  0  0  0  0  0  0  0  0
    0.7500  -11.6913    0.0000 N   0  0  0  0  0  0  0  0  0  0  0  0
    1.3601  -13.0617    0.0000 C   0  0  0  0  0  0  0  0  0  0  0  0
    0.2454  -14.0654    0.0000 C   0  0  0  0  0  0  0  0  0  0  0  0
   -1.0537  -13.3154    0.0000 C   0  0  0  0  0  0  0  0  0  0  0  0
   -0.7418  -11.8481    0.0000 C   0  0  0  0  0  0  0  0  0  0  0  0
   -1.7455  -10.7334    0.0000 C   0  0  0  0  0  0  0  0  0  0  0  0
   -1.2820   -9.3068    0.0000 O   0  0  0  0  0  0  0  0  0  0  0  0
   -3.2127  -11.0453    0.0000 N   0  0  0  0  0  0  0  0  0  0  0  0
   -4.2164   -9.9306    0.0000 C   0  0  0  0  0  0  0  0  0  0  0  0
   -5.6836  -10.2424    0.0000 C   0  0  0  0  0  0  0  0  0  0  0  0
   -6.6873   -9.1277    0.0000 C   0  0  0  0  0  0  0  0  0  0  0  0
   -7.6910   -8.0130    0.0000 C   0  0  0  0  0  0  0  0  0  0  0  0
   -3.7529   -8.5040    0.0000 C   0  0  0  0  0  0  0  0  0  0  0  0
   -2.2856   -8.1921    0.0000 O   0  0  0  0  0  0  0  0  0  0  0  0
   -4.7566   -7.3893    0.0000 O   0  0  0  0  0  0  0  0  0  0  0  0
  2  1  1  1
  2  3  1  0
  3  4  1  0
  4  5  2  0
  5  6  1  0
  6  7  2  0
  7  8  1  0
  8  9  2  0
  2 10  1  0
 10 11  2  0
 10 12  1  0
 12 13  1  0
 13 14  1  1
 14 15  1  0
 15 16  1  0
 15 17  1  0
 13 18  1  0
 18 19  2  0
 18 20  1  0
 20 21  1  0
 20 22  1  0
 22 23  1  1
 23 24  1  0
 24 25  1  0
 24 26  1  0
 22 27  1  0
 27 28  2  0
 27 29  1  0
 29 30  1  0
 30 31  1  0
 31 32  1  0
 32 33  1  0
 33 34  1  1
 34 35  2  0
 34 36  1  0
 36 37  1  0
 37 38  1  1
 38 39  1  0
 39 40  3  0
 37 41  1  0
 41 42  2  0
 41 43  1  0
  9  4  1  0
 33 29  1  0
M  END
$$$$

     RDKit          2D

 44 45  0  0  0  0  0  0  0  0999 V2000
    8.2500   -6.4952    0.0000 N   0  0  0  0  0  0  0  0  0  0  0  0
    7.5000   -7.7942    0.0000 C   0  0  0  0  0  0  0  0  0  0  0  0
    7.5000   -5.1962    0.0000 C   0  0  0  0  0  0  0  0  0  0  0  0
    8.2500   -3.8971    0.0000 C   0  0  0  0  0  0  0  0  0  0  0  0
    9.7500   -3.8971    0.0000 C   0  0  0  0  0  0  0  0  0  0  0  0
   10.5000   -2.5981    0.0000 C   0  0  0  0  0  0  0  0  0  0  0  0
   12.0000   -2.5981    0.0000 C   0  0  0  0  0  0  0  0  0  0  0  0
   12.7500   -3.8971    0.0000 C   0  0  0  0  0  0  0  0  0  0  0  0
   12.0000   -5.1962    0.0000 C   0  0  0  0  0  0  0  0  0  0  0  0
   10.5000   -5.1962    0.0000 C   0  0  0  0  0  0  0  0  0  0  0  0
    6.0000   -5.1962    0.0000 C   0  0  0  0  0  0  0  0  0  0  0  0
    5.2500   -3.8971    0.0000 O   0  0  0  0  0  0  0  0  0  0  0  0
    5.2500   -6.4952    0.0000 N   0  0  0  0  0  0  0  0  0  0  0  0
    3.7500   -6.4952    0.0000 C   0  0  0  0  0  0  0  0  0  0  0  0
    3.0000   -5.1962    0.0000 C   0  0  0  0  0  0  0  0  0  0  0  0
    1.5000   -5.1962    0.0000 C   0  0  0  0  0  0  0  0  0  0  0  0
    0.7500   -3.8971    0.0000 C   0  0  0  0  0  0  0  0  0  0  0  0
    0.7500   -6.4952    0.0000 C   0  0  0  0  0  0  0  0  0  0  0  0
    3.0000   -7.7942    0.0000 C   0  0  0  0  0  0  0  0  0  0  0  0
    1.5000   -7.7942    0.0000 O   0  0  0  0  0  0  0  0  0  0  0  0
    3.7500   -9.0933    0.0000 N   0  0  0  0  0  0  0  0  0  0  0  0
    5.2500   -9.0933    0.0000 C   0  0  0  0  0  0  0  0  0  0  0  0
    3.0000  -10.3923    0.0000 C   0  0  0  0  0  0  0  0  0  0  0  0
    3.7500  -11.6913    0.0000 C   0  0  0  0  0  0  0  0  0  0  0  0
    5.2500  -11.6913    0.0000 C   0  0  0  0  0  0  0  0  0  0  0  0
    6.0000  -12.9904    0.0000 C   0  0  0  0  0  0  0  0  0  0  0  0
    6.0000  -10.3923    0.0000 C   0  0  0  0  0  0  0  0  0  0  0  0
    1.5000  -10.3923    0.0000 C   0  0  0  0  0  0  0  0  0  0  0  0
    0.7500   -9.0933    0.0000 O   0  0  0  0  0  0  0  0  0  0  0  0
    0.7500  -11.6913    0.0000 N   0  0  0  0  0  0  0  0  0  0  0  0
    1.3601  -13.0617    0.0000 C   0  0  0  0  0  0  0  0  0  0  0  0
    0.2454  -14.0654    0.0000 C   0  0  0  0  0  0  0  0  0  0  0  0
   -1.0537  -13.3154    0.0000 C   0  0  0  0  0  0  0  0  0  0  0  0
   -0.7418  -11.8481    0.0000 C   0  0  0  0  0  0  0  0  0  0  0  0
   -1.7455  -10.7334    0.0000 C   0  0  0  0  0  0  0  0  0  0  0  0
   -1.2820   -9.3068    0.0000 O   0  0  0  0  0  0  0  0  0  0  0  0
   -3.2127  -11.0453    0.0000 N   0  0  0  0  0  0  0  0  0  0  0  0
   -4.2164   -9.9306    0.0000 C   0  0  0  0  0  0  0  0  0  0  0  0
   -5.6836  -10.2424    0.0000 C   0  0  0  0  0  0  0  0  0  0  0  0
   -6.6873   -9.1277    0.0000 C   0  0  0  0  0  0  0  0  0  0  0  0
   -7.6910   -8.0130    0.0000 C   0  0  0  0  0  0  0  0  0  0  0  0
   -3.7529   -8.5040    0.0000 C   0  0  0  0  0  0  0  0  0  0  0  0
   -2.2856   -8.1921    0.0000 O   0  0  0  0  0  0  0  0  0  0  0  0
   -4.7566   -7.3893    0.0000 O   0  0  0  0  0  0  0  0  0  0  0  0
  1  2  1  0
  1  3  1  0
  3  4  1  6
  4  5  1  0
  5  6  2  0
  6  7  1  0
  7  8  2  0
  8  9  1  0
  9 10  2  0
  3 11  1  0
 11 12  2  0
 11 13  1  0
 13 14  1  0
 14 15  1  1
 15 16  1  0
 16 17  1  0
 16 18  1  0
 14 19  1  0
 19 20  2  0
 19 21  1  0
 21 22  1  0
 21 23  1  0
 23 24  1  1
 24 25  1  0
 25 26  1  0
 25 27  1  0
 23 28  1  0
 28 29  2  0
 28 30  1  0
 30 31  1  0
 31 32  1  0
 32 33  1  0
 33 34  1  0
 34 35  1  1
 35 36  2  0
 35 37  1  0
 37 38  1  0
 38 39  1  1
 39 40  1  0
 40 41  3  0
 38 42  1  0
 42 43  2  0
 42 44  1  0
 10  5  1  0
 34 30  1  0
M  END
$$$$

     RDKit          2D

 44 45  0  0  0  0  0  0  0  0999 V2000
    8.2500   -6.4952    0.0000 N   0  0  0  0  0  0  0  0  0  0  0  0
    7.5000   -7.7942    0.0000 C   0  0  0  0  0  0  0  0  0  0  0  0
    7.5000   -5.1962    0.0000 C   0  0  0  0  0  0  0  0  0  0  0  0
    8.2500   -3.8971    0.0000 C   0  0  0  0  0  0  0  0  0  0  0  0
    9.7500   -3.8971    0.0000 C   0  0  0  0  0  0  0  0  0  0  0  0
   10.5000   -2.5981    0.0000 C   0  0  0  0  0  0  0  0  0  0  0  0
   12.0000   -2.5981    0.0000 C   0  0  0  0  0  0  0  0  0  0  0  0
   12.7500   -3.8971    0.0000 C   0  0  0  0  0  0  0  0  0  0  0  0
   12.0000   -5.1962    0.0000 C   0  0  0  0  0  0  0  0  0  0  0  0
   10.5000   -5.1962    0.0000 C   0  0  0  0  0  0  0  0  0  0  0  0
    6.0000   -5.1962    0.0000 C   0  0  0  0  0  0  0  0  0  0  0  0
    5.2500   -3.8971    0.0000 O   0  0  0  0  0  0  0  0  0  0  0  0
    5.2500   -6.4952    0.0000 N   0  0  0  0  0  0  0  0  0  0  0  0
    3.7500   -6.4952    0.0000 C   0  0  0  0  0  0  0  0  0  0  0  0
    3.0000   -5.1962    0.0000 C   0  0  0  0  0  0  0  0  0  0  0  0
    1.5000   -5.1962    0.0000 C   0  0  0  0  0  0  0  0  0  0  0  0
    0.7500   -3.8971    0.0000 C   0  0  0  0  0  0  0  0  0  0  0  0
    0.7500   -6.4952    0.0000 C   0  0  0  0  0  0  0  0  0  0  0  0
    3.0000   -7.7942    0.0000 C   0  0  0  0  0  0  0  0  0  0  0  0
    1.5000   -7.7942    0.0000 O   0  0  0  0  0  0  0  0  0  0  0  0
    3.7500   -9.0933    0.0000 N   0  0  0  0  0  0  0  0  0  0  0  0
    5.2500   -9.0933    0.0000 C   0  0  0  0  0  0  0  0  0  0  0  0
    3.0000  -10.3923    0.0000 C   0  0  0  0  0  0  0  0  0  0  0  0
    3.7500  -11.6913    0.0000 C   0  0  0  0  0  0  0  0  0  0  0  0
    5.2500  -11.6913    0.0000 C   0  0  0  0  0  0  0  0  0  0  0  0
    6.0000  -12.9904    0.0000 C   0  0  0  0  0  0  0  0  0  0  0  0
    6.0000  -10.3923    0.0000 C   0  0  0  0  0  0  0  0  0  0  0  0
    1.5000  -10.3923    0.0000 C   0  0  0  0  0  0  0  0  0  0  0  0
    0.7500   -9.0933    0.0000 O   0  0  0  0  0  0  0  0  0  0  0  0
    0.7500  -11.6913    0.0000 N   0  0  0  0  0  0  0  0  0  0  0  0
    1.3601  -13.0617    0.0000 C   0  0  0  0  0  0  0  0  0  0  0  0
    0.2454  -14.0654    0.0000 C   0  0  0  0  0  0  0  0  0  0  0  0
   -1.0537  -13.3154    0.0000 C   0  0  0  0  0  0  0  0  0  0  0  0
   -0.7418  -11.8481    0.0000 C   0  0  0  0  0  0  0  0  0  0  0  0
   -1.7455  -10.7334    0.0000 C   0  0  0  0  0  0  0  0  0  0  0  0
   -1.2820   -9.3068    0.0000 O   0  0  0  0  0  0  0  0  0  0  0  0
   -3.2127  -11.0453    0.0000 N   0  0  0  0  0  0  0  0  0  0  0  0
   -4.2164   -9.9306    0.0000 C   0  0  0  0  0  0  0  0  0  0  0  0
   -5.6836  -10.2424    0.0000 C   0  0  0  0  0  0  0  0  0  0  0  0
   -6.6873   -9.1277    0.0000 C   0  0  0  0  0  0  0  0  0  0  0  0
   -7.6910   -8.0130    0.0000 C   0  0  0  0  0  0  0  0  0  0  0  0
   -3.7529   -8.5040    0.0000 C   0  0  0  0  0  0  0  0  0  0  0  0
   -2.2856   -8.1921    0.0000 O   0  0  0  0  0  0  0  0  0  0  0  0
   -4.7566   -7.3893    0.0000 O   0  0  0  0  0  0  0  0  0  0  0  0
  1  2  1  0
  1  3  1  0
  3  4  1  1
  4  5  1  0
  5  6  2  0
  6  7  1  0
  7  8  2  0
  8  9  1  0
  9 10  2  0
  3 11  1  0
 11 12  2  0
 11 13  1  0
 13 14  1  0
 14 15  1  1
 15 16  1  0
 16 17  1  0
 16 18  1  0
 14 19  1  0
 19 20  2  0
 19 21  1  0
 21 22  1  0
 21 23  1  0
 23 24  1  1
 24 25  1  0
 25 26  1  0
 25 27  1  0
 23 28  1  0
 28 29  2  0
 28 30  1  0
 30 31  1  0
 31 32  1  0
 32 33  1  0
 33 34  1  0
 34 35  1  1
 35 36  2  0
 35 37  1  0
 37 38  1  0
 38 39  1  1
 39 40  1  0
 40 41  3  0
 38 42  1  0
 42 43  2  0
 42 44  1  0
 10  5  1  0
 34 30  1  0
M  END
$$$$

     RDKit          2D

 39 39  0  0  0  0  0  0  0  0999 V2000
    2.7760    7.7942    0.0000 N   0  0  0  0  0  0  0  0  0  0  0  0
    1.2760    7.7942    0.0000 C   0  0  0  0  0  0  0  0  0  0  0  0
    0.5260    9.0933    0.0000 C   0  0  0  0  0  0  0  0  0  0  0  0
   -0.9740    9.0933    0.0000 O   0  0  0  0  0  0  0  0  0  0  0  0
    1.2760   10.3923    0.0000 C   0  0  0  0  0  0  0  0  0  0  0  0
    0.5260    6.4952    0.0000 C   0  0  0  0  0  0  0  0  0  0  0  0
   -0.9740    6.4952    0.0000 O   0  0  0  0  0  0  0  0  0  0  0  0
    1.2760    5.1962    0.0000 N   0  0  0  0  0  0  0  0  0  0  0  0
    0.5260    3.8971    0.0000 C   0  0  0  0  0  0  0  0  0  0  0  0
   -0.9740    3.8971    0.0000 C   0  0  0  0  0  0  0  0  0  0  0  0
   -1.7240    2.5981    0.0000 C   0  0  0  0  0  0  0  0  0  0  0  0
   -3.2240    2.5981    0.0000 C   0  0  0  0  0  0  0  0  0  0  0  0
   -0.9740    1.2990    0.0000 C   0  0  0  0  0  0  0  0  0  0  0  0
    1.2760    2.5981    0.0000 C   0  0  0  0  0  0  0  0  0  0  0  0
    0.5260    1.2990    0.0000 O   0  0  0  0  0  0  0  0  0  0  0  0
    2.7760    2.5981    0.0000 N   0  0  0  0  0  0  0  0  0  0  0  0
    3.5260    3.8971    0.0000 C   0  0  0  0  0  0  0  0  0  0  0  0
    3.5260    1.2990    0.0000 C   0  0  0  0  0  0  0  0  0  0  0  0
    5.0260    1.2990    0.0000 C   0  0  0  0  0  0  0  0  0  0  0  0
    5.7760    2.5981    0.0000 C   0  0  0  0  0  0  0  0  0  0  0  0
    7.2760    2.5981    0.0000 C   0  0  0  0  0  0  0  0  0  0  0  0
    5.0260    3.8971    0.0000 C   0  0  0  0  0  0  0  0  0  0  0  0
    2.7760    0.0000    0.0000 C   0  0  0  0  0  0  0  0  0  0  0  0
    1.2760    0.0000    0.0000 O   0  0  0  0  0  0  0  0  0  0  0  0
    3.5260   -1.2990    0.0000 N   0  0  0  0  0  0  0  0  0  0  0  0
    5.0178   -1.4558    0.0000 C   0  0  0  0  0  0  0  0  0  0  0  0
    5.3296   -2.9231    0.0000 C   0  0  0  0  0  0  0  0  0  0  0  0
    4.0306   -3.6731    0.0000 C   0  0  0  0  0  0  0  0  0  0  0  0
    2.9159   -2.6694    0.0000 C   0  0  0  0  0  0  0  0  0  0  0  0
    1.4486   -2.9812    0.0000 C   0  0  0  0  0  0  0  0  0  0  0  0
    0.4450   -1.8665    0.0000 O   0  0  0  0  0  0  0  0  0  0  0  0
    0.9851   -4.4078    0.0000 N   0  0  0  0  0  0  0  0  0  0  0  0
   -0.4821   -4.7197    0.0000 C   0  0  0  0  0  0  0  0  0  0  0  0
   -0.9456   -6.1463    0.0000 C   0  0  0  0  0  0  0  0  0  0  0  0
   -2.4128   -6.4581    0.0000 C   0  0  0  0  0  0  0  0  0  0  0  0
   -3.8801   -6.7700    0.0000 C   0  0  0  0  0  0  0  0  0  0  0  0
   -1.4858   -3.6050    0.0000 C   0  0  0  0  0  0  0  0  0  0  0  0
   -1.0223   -2.1784    0.0000 O   0  0  0  0  0  0  0  0  0  0  0  0
   -2.9530   -3.9168    0.0000 O   0  0  0  0  0  0  0  0  0  0  0  0
  2  1  1  6
  2  3  1  0
  3  4  1  0
  3  5  1  6
  2  6  1  0
  6  7  2  0
  6  8  1  0
  8  9  1  0
  9 10  1  1
 10 11  1  0
 11 12  1  0
 11 13  1  0
  9 14  1  0
 14 15  2  0
 14 16  1  0
 16 17  1  0
 16 18  1  0
 18 19  1  1
 19 20  1  0
 20 21  1  0
 20 22  1  0
 18 23  1  0
 23 24  2  0
 23 25  1  0
 25 26  1  0
 26 27  1  0
 27 28  1  0
 28 29  1  0
 29 30  1  1
 30 31  2  0
 30 32  1  0
 32 33  1  0
 33 34  1  1
 34 35  1  0
 35 36  3  0
 33 37  1  0
 37 38  2  0
 37 39  1  0
 29 25  1  0
M  END
$$$$

     RDKit          2D

 39 39  0  0  0  0  0  0  0  0999 V2000
    2.7760    7.7942    0.0000 N   0  0  0  0  0  0  0  0  0  0  0  0
    1.2760    7.7942    0.0000 C   0  0  0  0  0  0  0  0  0  0  0  0
    0.5260    9.0933    0.0000 C   0  0  0  0  0  0  0  0  0  0  0  0
   -0.9740    9.0933    0.0000 O   0  0  0  0  0  0  0  0  0  0  0  0
    1.2760   10.3923    0.0000 C   0  0  0  0  0  0  0  0  0  0  0  0
    0.5260    6.4952    0.0000 C   0  0  0  0  0  0  0  0  0  0  0  0
   -0.9740    6.4952    0.0000 O   0  0  0  0  0  0  0  0  0  0  0  0
    1.2760    5.1962    0.0000 N   0  0  0  0  0  0  0  0  0  0  0  0
    0.5260    3.8971    0.0000 C   0  0  0  0  0  0  0  0  0  0  0  0
   -0.9740    3.8971    0.0000 C   0  0  0  0  0  0  0  0  0  0  0  0
   -1.7240    2.5981    0.0000 C   0  0  0  0  0  0  0  0  0  0  0  0
   -3.2240    2.5981    0.0000 C   0  0  0  0  0  0  0  0  0  0  0  0
   -0.9740    1.2990    0.0000 C   0  0  0  0  0  0  0  0  0  0  0  0
    1.2760    2.5981    0.0000 C   0  0  0  0  0  0  0  0  0  0  0  0
    0.5260    1.2990    0.0000 O   0  0  0  0  0  0  0  0  0  0  0  0
    2.7760    2.5981    0.0000 N   0  0  0  0  0  0  0  0  0  0  0  0
    3.5260    3.8971    0.0000 C   0  0  0  0  0  0  0  0  0  0  0  0
    3.5260    1.2990    0.0000 C   0  0  0  0  0  0  0  0  0  0  0  0
    5.0260    1.2990    0.0000 C   0  0  0  0  0  0  0  0  0  0  0  0
    5.7760    2.5981    0.0000 C   0  0  0  0  0  0  0  0  0  0  0  0
    7.2760    2.5981    0.0000 C   0  0  0  0  0  0  0  0  0  0  0  0
    5.0260    3.8971    0.0000 C   0  0  0  0  0  0  0  0  0  0  0  0
    2.7760    0.0000    0.0000 C   0  0  0  0  0  0  0  0  0  0  0  0
    1.2760    0.0000    0.0000 O   0  0  0  0  0  0  0  0  0  0  0  0
    3.5260   -1.2990    0.0000 N   0  0  0  0  0  0  0  0  0  0  0  0
    5.0178   -1.4558    0.0000 C   0  0  0  0  0  0  0  0  0  0  0  0
    5.3296   -2.9231    0.0000 C   0  0  0  0  0  0  0  0  0  0  0  0
    4.0306   -3.6731    0.0000 C   0  0  0  0  0  0  0  0  0  0  0  0
    2.9159   -2.6694    0.0000 C   0  0  0  0  0  0  0  0  0  0  0  0
    1.4486   -2.9812    0.0000 C   0  0  0  0  0  0  0  0  0  0  0  0
    0.4450   -1.8665    0.0000 O   0  0  0  0  0  0  0  0  0  0  0  0
    0.9851   -4.4078    0.0000 N   0  0  0  0  0  0  0  0  0  0  0  0
   -0.4821   -4.7197    0.0000 C   0  0  0  0  0  0  0  0  0  0  0  0
   -0.9456   -6.1463    0.0000 C   0  0  0  0  0  0  0  0  0  0  0  0
   -2.4128   -6.4581    0.0000 C   0  0  0  0  0  0  0  0  0  0  0  0
   -3.8801   -6.7700    0.0000 C   0  0  0  0  0  0  0  0  0  0  0  0
   -1.4858   -3.6050    0.0000 C   0  0  0  0  0  0  0  0  0  0  0  0
   -1.0223   -2.1784    0.0000 O   0  0  0  0  0  0  0  0  0  0  0  0
   -2.9530   -3.9168    0.0000 O   0  0  0  0  0  0  0  0  0  0  0  0
  2  1  1  1
  2  3  1  0
  3  4  1  0
  3  5  1  6
  2  6  1  0
  6  7  2  0
  6  8  1  0
  8  9  1  0
  9 10  1  1
 10 11  1  0
 11 12  1  0
 11 13  1  0
  9 14  1  0
 14 15  2  0
 14 16  1  0
 16 17  1  0
 16 18  1  0
 18 19  1  1
 19 20  1  0
 20 21  1  0
 20 22  1  0
 18 23  1  0
 23 24  2  0
 23 25  1  0
 25 26  1  0
 26 27  1  0
 27 28  1  0
 28 29  1  0
 29 30  1  1
 30 31  2  0
 30 32  1  0
 32 33  1  0
 33 34  1  1
 34 35  1  0
 35 36  3  0
 33 37  1  0
 37 38  2  0
 37 39  1  0
 29 25  1  0
M  END
$$$$

     RDKit          2D

 40 40  0  0  0  0  0  0  0  0999 V2000
    2.7760    7.7942    0.0000 N   0  0  0  0  0  0  0  0  0  0  0  0
    3.5260    9.0933    0.0000 C   0  0  0  0  0  0  0  0  0  0  0  0
    1.2760    7.7942    0.0000 C   0  0  0  0  0  0  0  0  0  0  0  0
    0.5260    9.0933    0.0000 C   0  0  0  0  0  0  0  0  0  0  0  0
   -0.9740    9.0933    0.0000 O   0  0  0  0  0  0  0  0  0  0  0  0
    1.2760   10.3923    0.0000 C   0  0  0  0  0  0  0  0  0  0  0  0
    0.5260    6.4952    0.0000 C   0  0  0  0  0  0  0  0  0  0  0  0
   -0.9740    6.4952    0.0000 O   0  0  0  0  0  0  0  0  0  0  0  0
    1.2760    5.1962    0.0000 N   0  0  0  0  0  0  0  0  0  0  0  0
    0.5260    3.8971    0.0000 C   0  0  0  0  0  0  0  0  0  0  0  0
   -0.9740    3.8971    0.0000 C   0  0  0  0  0  0  0  0  0  0  0  0
   -1.7240    2.5981    0.0000 C   0  0  0  0  0  0  0  0  0  0  0  0
   -3.2240    2.5981    0.0000 C   0  0  0  0  0  0  0  0  0  0  0  0
   -0.9740    1.2990    0.0000 C   0  0  0  0  0  0  0  0  0  0  0  0
    1.2760    2.5981    0.0000 C   0  0  0  0  0  0  0  0  0  0  0  0
    0.5260    1.2990    0.0000 O   0  0  0  0  0  0  0  0  0  0  0  0
    2.7760    2.5981    0.0000 N   0  0  0  0  0  0  0  0  0  0  0  0
    3.5260    3.8971    0.0000 C   0  0  0  0  0  0  0  0  0  0  0  0
    3.5260    1.2990    0.0000 C   0  0  0  0  0  0  0  0  0  0  0  0
    5.0260    1.2990    0.0000 C   0  0  0  0  0  0  0  0  0  0  0  0
    5.7760    2.5981    0.0000 C   0  0  0  0  0  0  0  0  0  0  0  0
    7.2760    2.5981    0.0000 C   0  0  0  0  0  0  0  0  0  0  0  0
    5.0260    3.8971    0.0000 C   0  0  0  0  0  0  0  0  0  0  0  0
    2.7760    0.0000    0.0000 C   0  0  0  0  0  0  0  0  0  0  0  0
    1.2760    0.0000    0.0000 O   0  0  0  0  0  0  0  0  0  0  0  0
    3.5260   -1.2990    0.0000 N   0  0  0  0  0  0  0  0  0  0  0  0
    5.0178   -1.4558    0.0000 C   0  0  0  0  0  0  0  0  0  0  0  0
    5.3296   -2.9231    0.0000 C   0  0  0  0  0  0  0  0  0  0  0  0
    4.0306   -3.6731    0.0000 C   0  0  0  0  0  0  0  0  0  0  0  0
    2.9159   -2.6694    0.0000 C   0  0  0  0  0  0  0  0  0  0  0  0
    1.4486   -2.9812    0.0000 C   0  0  0  0  0  0  0  0  0  0  0  0
    0.4450   -1.8665    0.0000 O   0  0  0  0  0  0  0  0  0  0  0  0
    0.9851   -4.4078    0.0000 N   0  0  0  0  0  0  0  0  0  0  0  0
   -0.4821   -4.7197    0.0000 C   0  0  0  0  0  0  0  0  0  0  0  0
   -0.9456   -6.1463    0.0000 C   0  0  0  0  0  0  0  0  0  0  0  0
   -2.4128   -6.4581    0.0000 C   0  0  0  0  0  0  0  0  0  0  0  0
   -3.8801   -6.7700    0.0000 C   0  0  0  0  0  0  0  0  0  0  0  0
   -1.4858   -3.6050    0.0000 C   0  0  0  0  0  0  0  0  0  0  0  0
   -1.0223   -2.1784    0.0000 O   0  0  0  0  0  0  0  0  0  0  0  0
   -2.9530   -3.9168    0.0000 O   0  0  0  0  0  0  0  0  0  0  0  0
  1  2  1  0
  3  1  1  6
  3  4  1  0
  4  5  1  0
  4  6  1  6
  3  7  1  0
  7  8  2  0
  7  9  1  0
  9 10  1  0
 10 11  1  1
 11 12  1  0
 12 13  1  0
 12 14  1  0
 10 15  1  0
 15 16  2  0
 15 17  1  0
 17 18  1  0
 17 19  1  0
 19 20  1  1
 20 21  1  0
 21 22  1  0
 21 23  1  0
 19 24  1  0
 24 25  2  0
 24 26  1  0
 26 27  1  0
 27 28  1  0
 28 29  1  0
 29 30  1  0
 30 31  1  1
 31 32  2  0
 31 33  1  0
 33 34  1  0
 34 35  1  1
 35 36  1  0
 36 37  3  0
 34 38  1  0
 38 39  2  0
 38 40  1  0
 30 26  1  0
M  END
$$$$

     RDKit          2D

 40 40  0  0  0  0  0  0  0  0999 V2000
    2.7760    7.7942    0.0000 N   0  0  0  0  0  0  0  0  0  0  0  0
    3.5260    9.0933    0.0000 C   0  0  0  0  0  0  0  0  0  0  0  0
    1.2760    7.7942    0.0000 C   0  0  0  0  0  0  0  0  0  0  0  0
    0.5260    9.0933    0.0000 C   0  0  0  0  0  0  0  0  0  0  0  0
   -0.9740    9.0933    0.0000 O   0  0  0  0  0  0  0  0  0  0  0  0
    1.2760   10.3923    0.0000 C   0  0  0  0  0  0  0  0  0  0  0  0
    0.5260    6.4952    0.0000 C   0  0  0  0  0  0  0  0  0  0  0  0
   -0.9740    6.4952    0.0000 O   0  0  0  0  0  0  0  0  0  0  0  0
    1.2760    5.1962    0.0000 N   0  0  0  0  0  0  0  0  0  0  0  0
    0.5260    3.8971    0.0000 C   0  0  0  0  0  0  0  0  0  0  0  0
   -0.9740    3.8971    0.0000 C   0  0  0  0  0  0  0  0  0  0  0  0
   -1.7240    2.5981    0.0000 C   0  0  0  0  0  0  0  0  0  0  0  0
   -3.2240    2.5981    0.0000 C   0  0  0  0  0  0  0  0  0  0  0  0
   -0.9740    1.2990    0.0000 C   0  0  0  0  0  0  0  0  0  0  0  0
    1.2760    2.5981    0.0000 C   0  0  0  0  0  0  0  0  0  0  0  0
    0.5260    1.2990    0.0000 O   0  0  0  0  0  0  0  0  0  0  0  0
    2.7760    2.5981    0.0000 N   0  0  0  0  0  0  0  0  0  0  0  0
    3.5260    3.8971    0.0000 C   0  0  0  0  0  0  0  0  0  0  0  0
    3.5260    1.2990    0.0000 C   0  0  0  0  0  0  0  0  0  0  0  0
    5.0260    1.2990    0.0000 C   0  0  0  0  0  0  0  0  0  0  0  0
    5.7760    2.5981    0.0000 C   0  0  0  0  0  0  0  0  0  0  0  0
    7.2760    2.5981    0.0000 C   0  0  0  0  0  0  0  0  0  0  0  0
    5.0260    3.8971    0.0000 C   0  0  0  0  0  0  0  0  0  0  0  0
    2.7760    0.0000    0.0000 C   0  0  0  0  0  0  0  0  0  0  0  0
    1.2760    0.0000    0.0000 O   0  0  0  0  0  0  0  0  0  0  0  0
    3.5260   -1.2990    0.0000 N   0  0  0  0  0  0  0  0  0  0  0  0
    5.0178   -1.4558    0.0000 C   0  0  0  0  0  0  0  0  0  0  0  0
    5.3296   -2.9231    0.0000 C   0  0  0  0  0  0  0  0  0  0  0  0
    4.0306   -3.6731    0.0000 C   0  0  0  0  0  0  0  0  0  0  0  0
    2.9159   -2.6694    0.0000 C   0  0  0  0  0  0  0  0  0  0  0  0
    1.4486   -2.9812    0.0000 C   0  0  0  0  0  0  0  0  0  0  0  0
    0.4450   -1.8665    0.0000 O   0  0  0  0  0  0  0  0  0  0  0  0
    0.9851   -4.4078    0.0000 N   0  0  0  0  0  0  0  0  0  0  0  0
   -0.4821   -4.7197    0.0000 C   0  0  0  0  0  0  0  0  0  0  0  0
   -0.9456   -6.1463    0.0000 C   0  0  0  0  0  0  0  0  0  0  0  0
   -2.4128   -6.4581    0.0000 C   0  0  0  0  0  0  0  0  0  0  0  0
   -3.8801   -6.7700    0.0000 C   0  0  0  0  0  0  0  0  0  0  0  0
   -1.4858   -3.6050    0.0000 C   0  0  0  0  0  0  0  0  0  0  0  0
   -1.0223   -2.1784    0.0000 O   0  0  0  0  0  0  0  0  0  0  0  0
   -2.9530   -3.9168    0.0000 O   0  0  0  0  0  0  0  0  0  0  0  0
  1  2  1  0
  3  1  1  1
  3  4  1  0
  4  5  1  0
  4  6  1  6
  3  7  1  0
  7  8  2  0
  7  9  1  0
  9 10  1  0
 10 11  1  1
 11 12  1  0
 12 13  1  0
 12 14  1  0
 10 15  1  0
 15 16  2  0
 15 17  1  0
 17 18  1  0
 17 19  1  0
 19 20  1  1
 20 21  1  0
 21 22  1  0
 21 23  1  0
 19 24  1  0
 24 25  2  0
 24 26  1  0
 26 27  1  0
 27 28  1  0
 28 29  1  0
 29 30  1  0
 30 31  1  1
 31 32  2  0
 31 33  1  0
 33 34  1  0
 34 35  1  1
 35 36  1  0
 36 37  3  0
 34 38  1  0
 38 39  2  0
 38 40  1  0
 30 26  1  0
M  END
$$$$

     RDKit          2D

 40 40  0  0  0  0  0  0  0  0999 V2000
    0.5260    9.0933    0.0000 N   0  0  0  0  0  0  0  0  0  0  0  0
    1.2760   10.3923    0.0000 C   0  0  0  0  0  0  0  0  0  0  0  0
    0.5260   11.6913    0.0000 C   0  0  0  0  0  0  0  0  0  0  0  0
    1.2760   12.9904    0.0000 C   0  0  0  0  0  0  0  0  0  0  0  0
   -0.9740   11.6913    0.0000 C   0  0  0  0  0  0  0  0  0  0  0  0
    1.2760    7.7942    0.0000 C   0  0  0  0  0  0  0  0  0  0  0  0
    0.5260    6.4952    0.0000 C   0  0  0  0  0  0  0  0  0  0  0  0
   -0.9740    6.4952    0.0000 O   0  0  0  0  0  0  0  0  0  0  0  0
    1.2760    5.1962    0.0000 N   0  0  0  0  0  0  0  0  0  0  0  0
    0.5260    3.8971    0.0000 C   0  0  0  0  0  0  0  0  0  0  0  0
   -0.9740    3.8971    0.0000 C   0  0  0  0  0  0  0  0  0  0  0  0
   -1.7240    2.5981    0.0000 C   0  0  0  0  0  0  0  0  0  0  0  0
   -3.2240    2.5981    0.0000 C   0  0  0  0  0  0  0  0  0  0  0  0
   -0.9740    1.2990    0.0000 C   0  0  0  0  0  0  0  0  0  0  0  0
    1.2760    2.5981    0.0000 C   0  0  0  0  0  0  0  0  0  0  0  0
    0.5260    1.2990    0.0000 O   0  0  0  0  0  0  0  0  0  0  0  0
    2.7760    2.5981    0.0000 N   0  0  0  0  0  0  0  0  0  0  0  0
    3.5260    3.8971    0.0000 C   0  0  0  0  0  0  0  0  0  0  0  0
    3.5260    1.2990    0.0000 C   0  0  0  0  0  0  0  0  0  0  0  0
    5.0260    1.2990    0.0000 C   0  0  0  0  0  0  0  0  0  0  0  0
    5.7760    2.5981    0.0000 C   0  0  0  0  0  0  0  0  0  0  0  0
    7.2760    2.5981    0.0000 C   0  0  0  0  0  0  0  0  0  0  0  0
    5.0260    3.8971    0.0000 C   0  0  0  0  0  0  0  0  0  0  0  0
    2.7760    0.0000    0.0000 C   0  0  0  0  0  0  0  0  0  0  0  0
    1.2760    0.0000    0.0000 O   0  0  0  0  0  0  0  0  0  0  0  0
    3.5260   -1.2990    0.0000 N   0  0  0  0  0  0  0  0  0  0  0  0
    5.0178   -1.4558    0.0000 C   0  0  0  0  0  0  0  0  0  0  0  0
    5.3296   -2.9231    0.0000 C   0  0  0  0  0  0  0  0  0  0  0  0
    4.0306   -3.6731    0.0000 C   0  0  0  0  0  0  0  0  0  0  0  0
    2.9159   -2.6694    0.0000 C   0  0  0  0  0  0  0  0  0  0  0  0
    1.4486   -2.9812    0.0000 C   0  0  0  0  0  0  0  0  0  0  0  0
    0.4450   -1.8665    0.0000 O   0  0  0  0  0  0  0  0  0  0  0  0
    0.9851   -4.4078    0.0000 N   0  0  0  0  0  0  0  0  0  0  0  0
   -0.4821   -4.7197    0.0000 C   0  0  0  0  0  0  0  0  0  0  0  0
   -0.9456   -6.1463    0.0000 C   0  0  0  0  0  0  0  0  0  0  0  0
   -2.4128   -6.4581    0.0000 C   0  0  0  0  0  0  0  0  0  0  0  0
   -3.8801   -6.7700    0.0000 C   0  0  0  0  0  0  0  0  0  0  0  0
   -1.4858   -3.6050    0.0000 C   0  0  0  0  0  0  0  0  0  0  0  0
   -1.0223   -2.1784    0.0000 O   0  0  0  0  0  0  0  0  0  0  0  0
   -2.9530   -3.9168    0.0000 O   0  0  0  0  0  0  0  0  0  0  0  0
  1  2  1  0
  2  3  1  0
  3  4  1  0
  3  5  1  0
  1  6  1  0
  6  7  1  0
  7  8  2  0
  7  9  1  0
  9 10  1  0
 10 11  1  1
 11 12  1  0
 12 13  1  0
 12 14  1  0
 10 15  1  0
 15 16  2  0
 15 17  1  0
 17 18  1  0
 17 19  1  0
 19 20  1  1
 20 21  1  0
 21 22  1  0
 21 23  1  0
 19 24  1  0
 24 25  2  0
 24 26  1  0
 26 27  1  0
 27 28  1  0
 28 29  1  0
 29 30  1  0
 30 31  1  1
 31 32  2  0
 31 33  1  0
 33 34  1  0
 34 35  1  1
 35 36  1  0
 36 37  3  0
 34 38  1  0
 38 39  2  0
 38 40  1  0
 30 26  1  0
M  END
$$$$

     RDKit          2D

 43 43  0  0  0  0  0  0  0  0999 V2000
    0.5260    9.0933    0.0000 N   0  0  0  0  0  0  0  0  0  0  0  0
    1.2760   10.3923    0.0000 C   0  0  0  0  0  0  0  0  0  0  0  0
    0.5260   11.6913    0.0000 C   0  0  0  0  0  0  0  0  0  0  0  0
    1.2760   12.9904    0.0000 C   0  0  0  0  0  0  0  0  0  0  0  0
    0.5260   14.2894    0.0000 O   0  0  0  0  0  0  0  0  0  0  0  0
    1.2760   15.5885    0.0000 C   0  0  0  0  0  0  0  0  0  0  0  0
    0.5260   16.8875    0.0000 C   0  0  0  0  0  0  0  0  0  0  0  0
    2.7760   15.5885    0.0000 C   0  0  0  0  0  0  0  0  0  0  0  0
    1.2760    7.7942    0.0000 C   0  0  0  0  0  0  0  0  0  0  0  0
    0.5260    6.4952    0.0000 C   0  0  0  0  0  0  0  0  0  0  0  0
   -0.9740    6.4952    0.0000 O   0  0  0  0  0  0  0  0  0  0  0  0
    1.2760    5.1962    0.0000 N   0  0  0  0  0  0  0  0  0  0  0  0
    0.5260    3.8971    0.0000 C   0  0  0  0  0  0  0  0  0  0  0  0
   -0.9740    3.8971    0.0000 C   0  0  0  0  0  0  0  0  0  0  0  0
   -1.7240    2.5981    0.0000 C   0  0  0  0  0  0  0  0  0  0  0  0
   -3.2240    2.5981    0.0000 C   0  0  0  0  0  0  0  0  0  0  0  0
   -0.9740    1.2990    0.0000 C   0  0  0  0  0  0  0  0  0  0  0  0
    1.2760    2.5981    0.0000 C   0  0  0  0  0  0  0  0  0  0  0  0
    0.5260    1.2990    0.0000 O   0  0  0  0  0  0  0  0  0  0  0  0
    2.7760    2.5981    0.0000 N   0  0  0  0  0  0  0  0  0  0  0  0
    3.5260    3.8971    0.0000 C   0  0  0  0  0  0  0  0  0  0  0  0
    3.5260    1.2990    0.0000 C   0  0  0  0  0  0  0  0  0  0  0  0
    5.0260    1.2990    0.0000 C   0  0  0  0  0  0  0  0  0  0  0  0
    5.7760    2.5981    0.0000 C   0  0  0  0  0  0  0  0  0  0  0  0
    7.2760    2.5981    0.0000 C   0  0  0  0  0  0  0  0  0  0  0  0
    5.0260    3.8971    0.0000 C   0  0  0  0  0  0  0  0  0  0  0  0
    2.7760    0.0000    0.0000 C   0  0  0  0  0  0  0  0  0  0  0  0
    1.2760    0.0000    0.0000 O   0  0  0  0  0  0  0  0  0  0  0  0
    3.5260   -1.2990    0.0000 N   0  0  0  0  0  0  0  0  0  0  0  0
    5.0178   -1.4558    0.0000 C   0  0  0  0  0  0  0  0  0  0  0  0
    5.3296   -2.9231    0.0000 C   0  0  0  0  0  0  0  0  0  0  0  0
    4.0306   -3.6731    0.0000 C   0  0  0  0  0  0  0  0  0  0  0  0
    2.9159   -2.6694    0.0000 C   0  0  0  0  0  0  0  0  0  0  0  0
    1.4486   -2.9812    0.0000 C   0  0  0  0  0  0  0  0  0  0  0  0
    0.4450   -1.8665    0.0000 O   0  0  0  0  0  0  0  0  0  0  0  0
    0.9851   -4.4078    0.0000 N   0  0  0  0  0  0  0  0  0  0  0  0
   -0.4821   -4.7197    0.0000 C   0  0  0  0  0  0  0  0  0  0  0  0
   -0.9456   -6.1463    0.0000 C   0  0  0  0  0  0  0  0  0  0  0  0
   -2.4128   -6.4581    0.0000 C   0  0  0  0  0  0  0  0  0  0  0  0
   -3.8801   -6.7700    0.0000 C   0  0  0  0  0  0  0  0  0  0  0  0
   -1.4858   -3.6050    0.0000 C   0  0  0  0  0  0  0  0  0  0  0  0
   -1.0223   -2.1784    0.0000 O   0  0  0  0  0  0  0  0  0  0  0  0
   -2.9530   -3.9168    0.0000 O   0  0  0  0  0  0  0  0  0  0  0  0
  1  2  1  0
  2  3  1  0
  3  4  1  0
  4  5  1  0
  5  6  1  0
  6  7  1  0
  6  8  1  0
  1  9  1  0
  9 10  1  0
 10 11  2  0
 10 12  1  0
 12 13  1  0
 13 14  1  1
 14 15  1  0
 15 16  1  0
 15 17  1  0
 13 18  1  0
 18 19  2  0
 18 20  1  0
 20 21  1  0
 20 22  1  0
 22 23  1  1
 23 24  1  0
 24 25  1  0
 24 26  1  0
 22 27  1  0
 27 28  2  0
 27 29  1  0
 29 30  1  0
 30 31  1  0
 31 32  1  0
 32 33  1  0
 33 34  1  1
 34 35  2  0
 34 36  1  0
 36 37  1  0
 37 38  1  1
 38 39  1  0
 39 40  3  0
 37 41  1  0
 41 42  2  0
 41 43  1  0
 33 29  1  0
M  END
$$$$

     RDKit          2D

 45 46  0  0  0  0  0  0  0  0999 V2000
    3.0000   -7.7942    0.0000 N   0  0  0  0  0  0  0  0  0  0  0  0
    3.7500   -6.4952    0.0000 C   0  0  0  0  0  0  0  0  0  0  0  0
    5.2500   -6.4952    0.0000 C   0  0  0  0  0  0  0  0  0  0  0  0
    6.0000   -5.1962    0.0000 O   0  0  0  0  0  0  0  0  0  0  0  0
    7.5000   -5.1962    0.0000 C   0  0  0  0  0  0  0  0  0  0  0  0
    8.2500   -3.8971    0.0000 C   0  0  0  0  0  0  0  0  0  0  0  0
    9.7500   -3.8971    0.0000 C   0  0  0  0  0  0  0  0  0  0  0  0
   10.5000   -5.1962    0.0000 C   0  0  0  0  0  0  0  0  0  0  0  0
    9.7500   -6.4952    0.0000 C   0  0  0  0  0  0  0  0  0  0  0  0
    8.2500   -6.4952    0.0000 C   0  0  0  0  0  0  0  0  0  0  0  0
    1.5000   -7.7942    0.0000 C   0  0  0  0  0  0  0  0  0  0  0  0
    0.7500   -9.0933    0.0000 C   0  0  0  0  0  0  0  0  0  0  0  0
    1.5000  -10.3923    0.0000 O   0  0  0  0  0  0  0  0  0  0  0  0
   -0.7500   -9.0933    0.0000 N   0  0  0  0  0  0  0  0  0  0  0  0
   -1.5000  -10.3923    0.0000 C   0  0  0  0  0  0  0  0  0  0  0  0
   -3.0000  -10.3923    0.0000 C   0  0  0  0  0  0  0  0  0  0  0  0
   -3.7500   -9.0933    0.0000 C   0  0  0  0  0  0  0  0  0  0  0  0
   -5.2500   -9.0933    0.0000 C   0  0  0  0  0  0  0  0  0  0  0  0
   -3.0000   -7.7942    0.0000 C   0  0  0  0  0  0  0  0  0  0  0  0
   -0.7500  -11.6913    0.0000 C   0  0  0  0  0  0  0  0  0  0  0  0
    0.7500  -11.6913    0.0000 O   0  0  0  0  0  0  0  0  0  0  0  0
   -1.5000  -12.9904    0.0000 N   0  0  0  0  0  0  0  0  0  0  0  0
   -3.0000  -12.9904    0.0000 C   0  0  0  0  0  0  0  0  0  0  0  0
   -0.7500  -14.2894    0.0000 C   0  0  0  0  0  0  0  0  0  0  0  0
   -1.5000  -15.5885    0.0000 C   0  0  0  0  0  0  0  0  0  0  0  0
   -3.0000  -15.5885    0.0000 C   0  0  0  0  0  0  0  0  0  0  0  0
   -3.7500  -16.8875    0.0000 C   0  0  0  0  0  0  0  0  0  0  0  0
   -3.7500  -14.2894    0.0000 C   0  0  0  0  0  0  0  0  0  0  0  0
    0.7500  -14.2894    0.0000 C   0  0  0  0  0  0  0  0  0  0  0  0
    1.5000  -12.9904    0.0000 O   0  0  0  0  0  0  0  0  0  0  0  0
    1.5000  -15.5885    0.0000 N   0  0  0  0  0  0  0  0  0  0  0  0
    0.8899  -16.9588    0.0000 C   0  0  0  0  0  0  0  0  0  0  0  0
    2.0046  -17.9625    0.0000 C   0  0  0  0  0  0  0  0  0  0  0  0
    3.3037  -17.2125    0.0000 C   0  0  0  0  0  0  0  0  0  0  0  0
    2.9918  -15.7452    0.0000 C   0  0  0  0  0  0  0  0  0  0  0  0
    3.9955  -14.6305    0.0000 C   0  0  0  0  0  0  0  0  0  0  0  0
    3.5320  -13.2039    0.0000 O   0  0  0  0  0  0  0  0  0  0  0  0
    5.4627  -14.9424    0.0000 N   0  0  0  0  0  0  0  0  0  0  0  0
    6.4664  -13.8277    0.0000 C   0  0  0  0  0  0  0  0  0  0  0  0
    7.9336  -14.1396    0.0000 C   0  0  0  0  0  0  0  0  0  0  0  0
    8.9373  -13.0248    0.0000 C   0  0  0  0  0  0  0  0  0  0  0  0
    9.9410  -11.9101    0.0000 C   0  0  0  0  0  0  0  0  0  0  0  0
    6.0029  -12.4011    0.0000 C   0  0  0  0  0  0  0  0  0  0  0  0
    4.5356  -12.0892    0.0000 O   0  0  0  0  0  0  0  0  0  0  0  0
    7.0066  -11.2864    0.0000 O   0  0  0  0  0  0  0  0  0  0  0  0
  1  2  1  0
  2  3  1  0
  3  4  1  0
  4  5  1  0
  5  6  2  0
  6  7  1  0
  7  8  2  0
  8  9  1  0
  9 10  2  0
  1 11  1  0
 11 12  1  0
 12 13  2  0
 12 14  1  0
 14 15  1  0
 15 16  1  1
 16 17  1  0
 17 18  1  0
 17 19  1  0
 15 20  1  0
 20 21  2  0
 20 22  1  0
 22 23  1  0
 22 24  1  0
 24 25  1  6
 25 26  1  0
 26 27  1  0
 26 28  1  0
 24 29  1  0
 29 30  2  0
 29 31  1  0
 31 32  1  0
 32 33  1  0
 33 34  1  0
 34 35  1  0
 35 36  1  6
 36 37  2  0
 36 38  1  0
 38 39  1  0
 39 40  1  6
 40 41  1  0
 41 42  3  0
 39 43  1  0
 43 44  2  0
 43 45  1  0
 10  5  1  0
 35 31  1  0
M  END
$$$$

     RDKit          2D

 48 49  0  0  0  0  0  0  0  0999 V2000
   -3.0000  -12.9904    0.0000 N   0  0  0  0  0  0  0  0  0  0  0  0
   -3.7500  -14.2894    0.0000 C   0  0  0  0  0  0  0  0  0  0  0  0
   -5.2500  -14.2894    0.0000 C   0  0  0  0  0  0  0  0  0  0  0  0
   -6.0000  -15.5885    0.0000 C   0  0  0  0  0  0  0  0  0  0  0  0
   -7.5000  -15.5885    0.0000 C   0  0  0  0  0  0  0  0  0  0  0  0
   -8.2500  -16.8875    0.0000 C   0  0  0  0  0  0  0  0  0  0  0  0
   -7.5000  -18.1865    0.0000 C   0  0  0  0  0  0  0  0  0  0  0  0
   -6.0000  -18.1865    0.0000 C   0  0  0  0  0  0  0  0  0  0  0  0
   -5.2500  -19.4856    0.0000 O   0  0  0  0  0  0  0  0  0  0  0  0
   -3.7500  -19.4856    0.0000 C   0  0  0  0  0  0  0  0  0  0  0  0
   -5.2500  -16.8875    0.0000 C   0  0  0  0  0  0  0  0  0  0  0  0
   -8.2500  -19.4856    0.0000 O   0  0  0  0  0  0  0  0  0  0  0  0
   -9.7500  -19.4856    0.0000 C   0  0  0  0  0  0  0  0  0  0  0  0
   -1.5000  -12.9904    0.0000 C   0  0  0  0  0  0  0  0  0  0  0  0
   -0.7500  -11.6913    0.0000 C   0  0  0  0  0  0  0  0  0  0  0  0
   -1.5000  -10.3923    0.0000 O   0  0  0  0  0  0  0  0  0  0  0  0
    0.7500  -11.6913    0.0000 N   0  0  0  0  0  0  0  0  0  0  0  0
    1.5000  -10.3923    0.0000 C   0  0  0  0  0  0  0  0  0  0  0  0
    0.7500   -9.0933    0.0000 C   0  0  0  0  0  0  0  0  0  0  0  0
    1.5000   -7.7942    0.0000 C   0  0  0  0  0  0  0  0  0  0  0  0
    0.7500   -6.4952    0.0000 C   0  0  0  0  0  0  0  0  0  0  0  0
    3.0000   -7.7942    0.0000 C   0  0  0  0  0  0  0  0  0  0  0  0
    3.0000  -10.3923    0.0000 C   0  0  0  0  0  0  0  0  0  0  0  0
    3.7500   -9.0933    0.0000 O   0  0  0  0  0  0  0  0  0  0  0  0
    3.7500  -11.6913    0.0000 N   0  0  0  0  0  0  0  0  0  0  0  0
    3.0000  -12.9904    0.0000 C   0  0  0  0  0  0  0  0  0  0  0  0
    5.2500  -11.6913    0.0000 C   0  0  0  0  0  0  0  0  0  0  0  0
    6.0000  -12.9904    0.0000 C   0  0  0  0  0  0  0  0  0  0  0  0
    5.2500  -14.2894    0.0000 C   0  0  0  0  0  0  0  0  0  0  0  0
    6.0000  -15.5885    0.0000 C   0  0  0  0  0  0  0  0  0  0  0  0
    3.7500  -14.2894    0.0000 C   0  0  0  0  0  0  0  0  0  0  0  0
    6.0000  -10.3923    0.0000 C   0  0  0  0  0  0  0  0  0  0  0  0
    5.2500   -9.0933    0.0000 O   0  0  0  0  0  0  0  0  0  0  0  0
    7.5000  -10.3923    0.0000 N   0  0  0  0  0  0  0  0  0  0  0  0
    8.3817  -11.6058    0.0000 C   0  0  0  0  0  0  0  0  0  0  0  0
    9.8083  -11.1423    0.0000 C   0  0  0  0  0  0  0  0  0  0  0  0
    9.8083   -9.6423    0.0000 C   0  0  0  0  0  0  0  0  0  0  0  0
    8.3817   -9.1788    0.0000 C   0  0  0  0  0  0  0  0  0  0  0  0
    7.9182   -7.7522    0.0000 C   0  0  0  0  0  0  0  0  0  0  0  0
    6.4509   -7.4403    0.0000 O   0  0  0  0  0  0  0  0  0  0  0  0
    8.9218   -6.6375    0.0000 N   0  0  0  0  0  0  0  0  0  0  0  0
    8.4583   -5.2109    0.0000 C   0  0  0  0  0  0  0  0  0  0  0  0
    9.4620   -4.0962    0.0000 C   0  0  0  0  0  0  0  0  0  0  0  0
    8.9985   -2.6696    0.0000 C   0  0  0  0  0  0  0  0  0  0  0  0
    8.5350   -1.2430    0.0000 C   0  0  0  0  0  0  0  0  0  0  0  0
    6.9911   -4.8990    0.0000 C   0  0  0  0  0  0  0  0  0  0  0  0
    5.9874   -6.0137    0.0000 O   0  0  0  0  0  0  0  0  0  0  0  0
    6.5276   -3.4724    0.0000 O   0  0  0  0  0  0  0  0  0  0  0  0
  1  2  1  0
  2  3  1  0
  3  4  1  0
  4  5  2  0
  5  6  1  0
  6  7  2  0
  7  8  1  0
  8  9  1  0
  9 10  1  0
  8 11  2  0
  7 12  1  0
 12 13  1  0
  1 14  1  0
 14 15  1  0
 15 16  2  0
 15 17  1  0
 17 18  1  0
 18 19  1  6
 19 20  1  0
 20 21  1  0
 20 22  1  0
 18 23  1  0
 23 24  2  0
 23 25  1  0
 25 26  1  0
 25 27  1  0
 27 28  1  6
 28 29  1  0
 29 30  1  0
 29 31  1  0
 27 32  1  0
 32 33  2  0
 32 34  1  0
 34 35  1  0
 35 36  1  0
 36 37  1  0
 37 38  1  0
 38 39  1  6
 39 40  2  0
 39 41  1  0
 41 42  1  0
 42 43  1  6
 43 44  1  0
 44 45  3  0
 42 46  1  0
 46 47  2  0
 46 48  1  0
 11  4  1  0
 38 34  1  0
M  END
$$$$

     RDKit          2D

 55 56  0  0  0  0  0  0  0  0999 V2000
   -6.5574    2.6509    0.0000 N   0  0  0  0  0  0  0  0  0  0  0  0
   -7.7710    1.7692    0.0000 C   0  0  0  0  0  0  0  0  0  0  0  0
   -9.1413    2.3794    0.0000 C   0  0  0  0  0  0  0  0  0  0  0  0
   -9.2981    3.8711    0.0000 C   0  0  0  0  0  0  0  0  0  0  0  0
  -10.6684    4.4812    0.0000 C   0  0  0  0  0  0  0  0  0  0  0  0
   -8.0845    4.7528    0.0000 C   0  0  0  0  0  0  0  0  0  0  0  0
   -7.6142    0.2775    0.0000 C   0  0  0  0  0  0  0  0  0  0  0  0
   -8.8277   -0.6042    0.0000 O   0  0  0  0  0  0  0  0  0  0  0  0
   -6.2438   -0.3326    0.0000 N   0  0  0  0  0  0  0  0  0  0  0  0
   -6.0870   -1.8244    0.0000 C   0  0  0  0  0  0  0  0  0  0  0  0
   -7.3006   -2.7061    0.0000 C   0  0  0  0  0  0  0  0  0  0  0  0
   -7.1438   -4.1979    0.0000 C   0  0  0  0  0  0  0  0  0  0  0  0
   -8.3573   -5.0796    0.0000 C   0  0  0  0  0  0  0  0  0  0  0  0
   -5.7735   -4.8080    0.0000 C   0  0  0  0  0  0  0  0  0  0  0  0
   -4.7167   -2.4345    0.0000 C   0  0  0  0  0  0  0  0  0  0  0  0
   -4.5599   -3.9263    0.0000 O   0  0  0  0  0  0  0  0  0  0  0  0
   -3.5032   -1.5528    0.0000 N   0  0  0  0  0  0  0  0  0  0  0  0
   -3.5032   -0.0528    0.0000 C   0  0  0  0  0  0  0  0  0  0  0  0
   -2.0766    0.4107    0.0000 C   0  0  0  0  0  0  0  0  0  0  0  0
   -1.1949   -0.8028    0.0000 C   0  0  0  0  0  0  0  0  0  0  0  0
   -2.0766   -2.0164    0.0000 C   0  0  0  0  0  0  0  0  0  0  0  0
   -1.6131   -3.4430    0.0000 C   0  0  0  0  0  0  0  0  0  0  0  0
   -2.6168   -4.5577    0.0000 O   0  0  0  0  0  0  0  0  0  0  0  0
   -0.1459   -3.7548    0.0000 N   0  0  0  0  0  0  0  0  0  0  0  0
    0.3177   -5.1814    0.0000 C   0  0  0  0  0  0  0  0  0  0  0  0
   -0.6860   -6.2961    0.0000 C   0  0  0  0  0  0  0  0  0  0  0  0
   -0.2225   -7.7227    0.0000 C   0  0  0  0  0  0  0  0  0  0  0  0
   -1.2262   -8.8374    0.0000 C   0  0  0  0  0  0  0  0  0  0  0  0
    1.2447   -8.0346    0.0000 C   0  0  0  0  0  0  0  0  0  0  0  0
    1.7849   -5.4933    0.0000 C   0  0  0  0  0  0  0  0  0  0  0  0
    2.2484   -6.9199    0.0000 O   0  0  0  0  0  0  0  0  0  0  0  0
    2.7886   -4.3786    0.0000 N   0  0  0  0  0  0  0  0  0  0  0  0
    2.3250   -2.9520    0.0000 C   0  0  0  0  0  0  0  0  0  0  0  0
    4.2558   -4.6904    0.0000 C   0  0  0  0  0  0  0  0  0  0  0  0
    5.2595   -3.5757    0.0000 C   0  0  0  0  0  0  0  0  0  0  0  0
    4.7960   -2.1491    0.0000 C   0  0  0  0  0  0  0  0  0  0  0  0
    5.7997   -1.0344    0.0000 C   0  0  0  0  0  0  0  0  0  0  0  0
    3.3287   -1.8373    0.0000 C   0  0  0  0  0  0  0  0  0  0  0  0
    4.7193   -6.1170    0.0000 C   0  0  0  0  0  0  0  0  0  0  0  0
    3.7156   -7.2317    0.0000 O   0  0  0  0  0  0  0  0  0  0  0  0
    6.1865   -6.4289    0.0000 N   0  0  0  0  0  0  0  0  0  0  0  0
    7.3013   -5.4252    0.0000 C   0  0  0  0  0  0  0  0  0  0  0  0
    8.6003   -6.1752    0.0000 C   0  0  0  0  0  0  0  0  0  0  0  0
    8.2884   -7.6424    0.0000 C   0  0  0  0  0  0  0  0  0  0  0  0
    6.7966   -7.7992    0.0000 C   0  0  0  0  0  0  0  0  0  0  0  0
    6.0466   -9.0982    0.0000 C   0  0  0  0  0  0  0  0  0  0  0  0
    4.5466   -9.0982    0.0000 O   0  0  0  0  0  0  0  0  0  0  0  0
    6.7966  -10.3973    0.0000 N   0  0  0  0  0  0  0  0  0  0  0  0
    6.0466  -11.6963    0.0000 C   0  0  0  0  0  0  0  0  0  0  0  0
    6.7966  -12.9954    0.0000 C   0  0  0  0  0  0  0  0  0  0  0  0
    6.0466  -14.2944    0.0000 C   0  0  0  0  0  0  0  0  0  0  0  0
    5.2966  -15.5934    0.0000 C   0  0  0  0  0  0  0  0  0  0  0  0
    4.5466  -11.6963    0.0000 C   0  0  0  0  0  0  0  0  0  0  0  0
    3.7966  -10.3973    0.0000 O   0  0  0  0  0  0  0  0  0  0  0  0
    3.7966  -12.9954    0.0000 O   0  0  0  0  0  0  0  0  0  0  0  0
  2  1  1  6
  2  3  1  0
  3  4  1  0
  4  5  1  0
  4  6  1  0
  2  7  1  0
  7  8  2  0
  7  9  1  0
  9 10  1  0
 10 11  1  6
 11 12  1  0
 12 13  1  0
 12 14  1  0
 10 15  1  0
 15 16  2  0
 15 17  1  0
 17 18  1  0
 18 19  1  0
 19 20  1  0
 20 21  1  0
 21 22  1  1
 22 23  2  0
 22 24  1  0
 24 25  1  0
 25 26  1  1
 26 27  1  0
 27 28  1  0
 27 29  1  0
 25 30  1  0
 30 31  2  0
 30 32  1  0
 32 33  1  0
 32 34  1  0
 34 35  1  1
 35 36  1  0
 36 37  1  0
 36 38  1  0
 34 39  1  0
 39 40  2  0
 39 41  1  0
 41 42  1  0
 42 43  1  0
 43 44  1  0
 44 45  1  0
 45 46  1  1
 46 47  2  0
 46 48  1  0
 48 49  1  0
 49 50  1  1
 50 51  1  0
 51 52  3  0
 49 53  1  0
 53 54  2  0
 53 55  1  0
 45 41  1  0
 21 17  1  0
M  END
$$$$

     RDKit          2D

 55 56  0  0  0  0  0  0  0  0999 V2000
   -6.5574    2.6509    0.0000 N   0  0  0  0  0  0  0  0  0  0  0  0
   -7.7710    1.7692    0.0000 C   0  0  0  0  0  0  0  0  0  0  0  0
   -9.1413    2.3794    0.0000 C   0  0  0  0  0  0  0  0  0  0  0  0
   -9.2981    3.8711    0.0000 C   0  0  0  0  0  0  0  0  0  0  0  0
  -10.6684    4.4812    0.0000 C   0  0  0  0  0  0  0  0  0  0  0  0
   -8.0845    4.7528    0.0000 C   0  0  0  0  0  0  0  0  0  0  0  0
   -7.6142    0.2775    0.0000 C   0  0  0  0  0  0  0  0  0  0  0  0
   -8.8277   -0.6042    0.0000 O   0  0  0  0  0  0  0  0  0  0  0  0
   -6.2438   -0.3326    0.0000 N   0  0  0  0  0  0  0  0  0  0  0  0
   -6.0870   -1.8244    0.0000 C   0  0  0  0  0  0  0  0  0  0  0  0
   -7.3006   -2.7061    0.0000 C   0  0  0  0  0  0  0  0  0  0  0  0
   -7.1438   -4.1979    0.0000 C   0  0  0  0  0  0  0  0  0  0  0  0
   -8.3573   -5.0796    0.0000 C   0  0  0  0  0  0  0  0  0  0  0  0
   -5.7735   -4.8080    0.0000 C   0  0  0  0  0  0  0  0  0  0  0  0
   -4.7167   -2.4345    0.0000 C   0  0  0  0  0  0  0  0  0  0  0  0
   -4.5599   -3.9263    0.0000 O   0  0  0  0  0  0  0  0  0  0  0  0
   -3.5032   -1.5528    0.0000 N   0  0  0  0  0  0  0  0  0  0  0  0
   -3.5032   -0.0528    0.0000 C   0  0  0  0  0  0  0  0  0  0  0  0
   -2.0766    0.4107    0.0000 C   0  0  0  0  0  0  0  0  0  0  0  0
   -1.1949   -0.8028    0.0000 C   0  0  0  0  0  0  0  0  0  0  0  0
   -2.0766   -2.0164    0.0000 C   0  0  0  0  0  0  0  0  0  0  0  0
   -1.6131   -3.4430    0.0000 C   0  0  0  0  0  0  0  0  0  0  0  0
   -2.6168   -4.5577    0.0000 O   0  0  0  0  0  0  0  0  0  0  0  0
   -0.1459   -3.7548    0.0000 N   0  0  0  0  0  0  0  0  0  0  0  0
    0.3177   -5.1814    0.0000 C   0  0  0  0  0  0  0  0  0  0  0  0
   -0.6860   -6.2961    0.0000 C   0  0  0  0  0  0  0  0  0  0  0  0
   -0.2225   -7.7227    0.0000 C   0  0  0  0  0  0  0  0  0  0  0  0
   -1.2262   -8.8374    0.0000 C   0  0  0  0  0  0  0  0  0  0  0  0
    1.2447   -8.0346    0.0000 C   0  0  0  0  0  0  0  0  0  0  0  0
    1.7849   -5.4933    0.0000 C   0  0  0  0  0  0  0  0  0  0  0  0
    2.2484   -6.9199    0.0000 O   0  0  0  0  0  0  0  0  0  0  0  0
    2.7886   -4.3786    0.0000 N   0  0  0  0  0  0  0  0  0  0  0  0
    2.3250   -2.9520    0.0000 C   0  0  0  0  0  0  0  0  0  0  0  0
    4.2558   -4.6904    0.0000 C   0  0  0  0  0  0  0  0  0  0  0  0
    5.2595   -3.5757    0.0000 C   0  0  0  0  0  0  0  0  0  0  0  0
    4.7960   -2.1491    0.0000 C   0  0  0  0  0  0  0  0  0  0  0  0
    5.7997   -1.0344    0.0000 C   0  0  0  0  0  0  0  0  0  0  0  0
    3.3287   -1.8373    0.0000 C   0  0  0  0  0  0  0  0  0  0  0  0
    4.7193   -6.1170    0.0000 C   0  0  0  0  0  0  0  0  0  0  0  0
    3.7156   -7.2317    0.0000 O   0  0  0  0  0  0  0  0  0  0  0  0
    6.1865   -6.4289    0.0000 N   0  0  0  0  0  0  0  0  0  0  0  0
    7.3013   -5.4252    0.0000 C   0  0  0  0  0  0  0  0  0  0  0  0
    8.6003   -6.1752    0.0000 C   0  0  0  0  0  0  0  0  0  0  0  0
    8.2884   -7.6424    0.0000 C   0  0  0  0  0  0  0  0  0  0  0  0
    6.7966   -7.7992    0.0000 C   0  0  0  0  0  0  0  0  0  0  0  0
    6.0466   -9.0982    0.0000 C   0  0  0  0  0  0  0  0  0  0  0  0
    4.5466   -9.0982    0.0000 O   0  0  0  0  0  0  0  0  0  0  0  0
    6.7966  -10.3973    0.0000 N   0  0  0  0  0  0  0  0  0  0  0  0
    6.0466  -11.6963    0.0000 C   0  0  0  0  0  0  0  0  0  0  0  0
    6.7966  -12.9954    0.0000 C   0  0  0  0  0  0  0  0  0  0  0  0
    6.0466  -14.2944    0.0000 C   0  0  0  0  0  0  0  0  0  0  0  0
    5.2966  -15.5934    0.0000 C   0  0  0  0  0  0  0  0  0  0  0  0
    4.5466  -11.6963    0.0000 C   0  0  0  0  0  0  0  0  0  0  0  0
    3.7966  -10.3973    0.0000 O   0  0  0  0  0  0  0  0  0  0  0  0
    3.7966  -12.9954    0.0000 O   0  0  0  0  0  0  0  0  0  0  0  0
  2  1  1  1
  2  3  1  0
  3  4  1  0
  4  5  1  0
  4  6  1  0
  2  7  1  0
  7  8  2  0
  7  9  1  0
  9 10  1  0
 10 11  1  6
 11 12  1  0
 12 13  1  0
 12 14  1  0
 10 15  1  0
 15 16  2  0
 15 17  1  0
 17 18  1  0
 18 19  1  0
 19 20  1  0
 20 21  1  0
 21 22  1  1
 22 23  2  0
 22 24  1  0
 24 25  1  0
 25 26  1  1
 26 27  1  0
 27 28  1  0
 27 29  1  0
 25 30  1  0
 30 31  2  0
 30 32  1  0
 32 33  1  0
 32 34  1  0
 34 35  1  1
 35 36  1  0
 36 37  1  0
 36 38  1  0
 34 39  1  0
 39 40  2  0
 39 41  1  0
 41 42  1  0
 42 43  1  0
 43 44  1  0
 44 45  1  0
 45 46  1  1
 46 47  2  0
 46 48  1  0
 48 49  1  0
 49 50  1  1
 50 51  1  0
 51 52  3  0
 49 53  1  0
 53 54  2  0
 53 55  1  0
 45 41  1  0
 21 17  1  0
M  END
$$$$

     RDKit          2D

 56 57  0  0  0  0  0  0  0  0999 V2000
   -6.5574    2.6509    0.0000 N   0  0  0  0  0  0  0  0  0  0  0  0
   -6.7142    4.1427    0.0000 C   0  0  0  0  0  0  0  0  0  0  0  0
   -7.7710    1.7692    0.0000 C   0  0  0  0  0  0  0  0  0  0  0  0
   -9.1413    2.3794    0.0000 C   0  0  0  0  0  0  0  0  0  0  0  0
   -9.2981    3.8711    0.0000 C   0  0  0  0  0  0  0  0  0  0  0  0
  -10.6684    4.4812    0.0000 C   0  0  0  0  0  0  0  0  0  0  0  0
   -8.0845    4.7528    0.0000 C   0  0  0  0  0  0  0  0  0  0  0  0
   -7.6142    0.2775    0.0000 C   0  0  0  0  0  0  0  0  0  0  0  0
   -8.8277   -0.6042    0.0000 O   0  0  0  0  0  0  0  0  0  0  0  0
   -6.2438   -0.3326    0.0000 N   0  0  0  0  0  0  0  0  0  0  0  0
   -6.0870   -1.8244    0.0000 C   0  0  0  0  0  0  0  0  0  0  0  0
   -7.3006   -2.7061    0.0000 C   0  0  0  0  0  0  0  0  0  0  0  0
   -7.1438   -4.1979    0.0000 C   0  0  0  0  0  0  0  0  0  0  0  0
   -8.3573   -5.0796    0.0000 C   0  0  0  0  0  0  0  0  0  0  0  0
   -5.7735   -4.8080    0.0000 C   0  0  0  0  0  0  0  0  0  0  0  0
   -4.7167   -2.4345    0.0000 C   0  0  0  0  0  0  0  0  0  0  0  0
   -4.5599   -3.9263    0.0000 O   0  0  0  0  0  0  0  0  0  0  0  0
   -3.5032   -1.5528    0.0000 N   0  0  0  0  0  0  0  0  0  0  0  0
   -3.5032   -0.0528    0.0000 C   0  0  0  0  0  0  0  0  0  0  0  0
   -2.0766    0.4107    0.0000 C   0  0  0  0  0  0  0  0  0  0  0  0
   -1.1949   -0.8028    0.0000 C   0  0  0  0  0  0  0  0  0  0  0  0
   -2.0766   -2.0164    0.0000 C   0  0  0  0  0  0  0  0  0  0  0  0
   -1.6131   -3.4430    0.0000 C   0  0  0  0  0  0  0  0  0  0  0  0
   -2.6168   -4.5577    0.0000 O   0  0  0  0  0  0  0  0  0  0  0  0
   -0.1459   -3.7548    0.0000 N   0  0  0  0  0  0  0  0  0  0  0  0
    0.3177   -5.1814    0.0000 C   0  0  0  0  0  0  0  0  0  0  0  0
   -0.6860   -6.2961    0.0000 C   0  0  0  0  0  0  0  0  0  0  0  0
   -0.2225   -7.7227    0.0000 C   0  0  0  0  0  0  0  0  0  0  0  0
   -1.2262   -8.8374    0.0000 C   0  0  0  0  0  0  0  0  0  0  0  0
    1.2447   -8.0346    0.0000 C   0  0  0  0  0  0  0  0  0  0  0  0
    1.7849   -5.4933    0.0000 C   0  0  0  0  0  0  0  0  0  0  0  0
    2.2484   -6.9199    0.0000 O   0  0  0  0  0  0  0  0  0  0  0  0
    2.7886   -4.3786    0.0000 N   0  0  0  0  0  0  0  0  0  0  0  0
    2.3250   -2.9520    0.0000 C   0  0  0  0  0  0  0  0  0  0  0  0
    4.2558   -4.6904    0.0000 C   0  0  0  0  0  0  0  0  0  0  0  0
    5.2595   -3.5757    0.0000 C   0  0  0  0  0  0  0  0  0  0  0  0
    4.7960   -2.1491    0.0000 C   0  0  0  0  0  0  0  0  0  0  0  0
    5.7997   -1.0344    0.0000 C   0  0  0  0  0  0  0  0  0  0  0  0
    3.3287   -1.8373    0.0000 C   0  0  0  0  0  0  0  0  0  0  0  0
    4.7193   -6.1170    0.0000 C   0  0  0  0  0  0  0  0  0  0  0  0
    3.7156   -7.2317    0.0000 O   0  0  0  0  0  0  0  0  0  0  0  0
    6.1865   -6.4289    0.0000 N   0  0  0  0  0  0  0  0  0  0  0  0
    7.3013   -5.4252    0.0000 C   0  0  0  0  0  0  0  0  0  0  0  0
    8.6003   -6.1752    0.0000 C   0  0  0  0  0  0  0  0  0  0  0  0
    8.2884   -7.6424    0.0000 C   0  0  0  0  0  0  0  0  0  0  0  0
    6.7966   -7.7992    0.0000 C   0  0  0  0  0  0  0  0  0  0  0  0
    6.0466   -9.0982    0.0000 C   0  0  0  0  0  0  0  0  0  0  0  0
    4.5466   -9.0982    0.0000 O   0  0  0  0  0  0  0  0  0  0  0  0
    6.7966  -10.3973    0.0000 N   0  0  0  0  0  0  0  0  0  0  0  0
    6.0466  -11.6963    0.0000 C   0  0  0  0  0  0  0  0  0  0  0  0
    6.7966  -12.9954    0.0000 C   0  0  0  0  0  0  0  0  0  0  0  0
    6.0466  -14.2944    0.0000 C   0  0  0  0  0  0  0  0  0  0  0  0
    5.2966  -15.5934    0.0000 C   0  0  0  0  0  0  0  0  0  0  0  0
    4.5466  -11.6963    0.0000 C   0  0  0  0  0  0  0  0  0  0  0  0
    3.7966  -10.3973    0.0000 O   0  0  0  0  0  0  0  0  0  0  0  0
    3.7966  -12.9954    0.0000 O   0  0  0  0  0  0  0  0  0  0  0  0
  1  2  1  0
  1  3  1  0
  3  4  1  6
  4  5  1  0
  5  6  1  0
  5  7  1  0
  3  8  1  0
  8  9  2  0
  8 10  1  0
 10 11  1  0
 11 12  1  6
 12 13  1  0
 13 14  1  0
 13 15  1  0
 11 16  1  0
 16 17  2  0
 16 18  1  0
 18 19  1  0
 19 20  1  0
 20 21  1  0
 21 22  1  0
 22 23  1  1
 23 24  2  0
 23 25  1  0
 25 26  1  0
 26 27  1  1
 27 28  1  0
 28 29  1  0
 28 30  1  0
 26 31  1  0
 31 32  2  0
 31 33  1  0
 33 34  1  0
 33 35  1  0
 35 36  1  1
 36 37  1  0
 37 38  1  0
 37 39  1  0
 35 40  1  0
 40 41  2  0
 40 42  1  0
 42 43  1  0
 43 44  1  0
 44 45  1  0
 45 46  1  0
 46 47  1  1
 47 48  2  0
 47 49  1  0
 49 50  1  0
 50 51  1  1
 51 52  1  0
 52 53  3  0
 50 54  1  0
 54 55  2  0
 54 56  1  0
 46 42  1  0
 22 18  1  0
M  END
$$$$

     RDKit          2D

 56 57  0  0  0  0  0  0  0  0999 V2000
   -6.5574    2.6509    0.0000 N   0  0  0  0  0  0  0  0  0  0  0  0
   -6.7142    4.1427    0.0000 C   0  0  0  0  0  0  0  0  0  0  0  0
   -7.7710    1.7692    0.0000 C   0  0  0  0  0  0  0  0  0  0  0  0
   -9.1413    2.3794    0.0000 C   0  0  0  0  0  0  0  0  0  0  0  0
   -9.2981    3.8711    0.0000 C   0  0  0  0  0  0  0  0  0  0  0  0
  -10.6684    4.4812    0.0000 C   0  0  0  0  0  0  0  0  0  0  0  0
   -8.0845    4.7528    0.0000 C   0  0  0  0  0  0  0  0  0  0  0  0
   -7.6142    0.2775    0.0000 C   0  0  0  0  0  0  0  0  0  0  0  0
   -8.8277   -0.6042    0.0000 O   0  0  0  0  0  0  0  0  0  0  0  0
   -6.2438   -0.3326    0.0000 N   0  0  0  0  0  0  0  0  0  0  0  0
   -6.0870   -1.8244    0.0000 C   0  0  0  0  0  0  0  0  0  0  0  0
   -7.3006   -2.7061    0.0000 C   0  0  0  0  0  0  0  0  0  0  0  0
   -7.1438   -4.1979    0.0000 C   0  0  0  0  0  0  0  0  0  0  0  0
   -8.3573   -5.0796    0.0000 C   0  0  0  0  0  0  0  0  0  0  0  0
   -5.7735   -4.8080    0.0000 C   0  0  0  0  0  0  0  0  0  0  0  0
   -4.7167   -2.4345    0.0000 C   0  0  0  0  0  0  0  0  0  0  0  0
   -4.5599   -3.9263    0.0000 O   0  0  0  0  0  0  0  0  0  0  0  0
   -3.5032   -1.5528    0.0000 N   0  0  0  0  0  0  0  0  0  0  0  0
   -3.5032   -0.0528    0.0000 C   0  0  0  0  0  0  0  0  0  0  0  0
   -2.0766    0.4107    0.0000 C   0  0  0  0  0  0  0  0  0  0  0  0
   -1.1949   -0.8028    0.0000 C   0  0  0  0  0  0  0  0  0  0  0  0
   -2.0766   -2.0164    0.0000 C   0  0  0  0  0  0  0  0  0  0  0  0
   -1.6131   -3.4430    0.0000 C   0  0  0  0  0  0  0  0  0  0  0  0
   -2.6168   -4.5577    0.0000 O   0  0  0  0  0  0  0  0  0  0  0  0
   -0.1459   -3.7548    0.0000 N   0  0  0  0  0  0  0  0  0  0  0  0
    0.3177   -5.1814    0.0000 C   0  0  0  0  0  0  0  0  0  0  0  0
   -0.6860   -6.2961    0.0000 C   0  0  0  0  0  0  0  0  0  0  0  0
   -0.2225   -7.7227    0.0000 C   0  0  0  0  0  0  0  0  0  0  0  0
   -1.2262   -8.8374    0.0000 C   0  0  0  0  0  0  0  0  0  0  0  0
    1.2447   -8.0346    0.0000 C   0  0  0  0  0  0  0  0  0  0  0  0
    1.7849   -5.4933    0.0000 C   0  0  0  0  0  0  0  0  0  0  0  0
    2.2484   -6.9199    0.0000 O   0  0  0  0  0  0  0  0  0  0  0  0
    2.7886   -4.3786    0.0000 N   0  0  0  0  0  0  0  0  0  0  0  0
    2.3250   -2.9520    0.0000 C   0  0  0  0  0  0  0  0  0  0  0  0
    4.2558   -4.6904    0.0000 C   0  0  0  0  0  0  0  0  0  0  0  0
    5.2595   -3.5757    0.0000 C   0  0  0  0  0  0  0  0  0  0  0  0
    4.7960   -2.1491    0.0000 C   0  0  0  0  0  0  0  0  0  0  0  0
    5.7997   -1.0344    0.0000 C   0  0  0  0  0  0  0  0  0  0  0  0
    3.3287   -1.8373    0.0000 C   0  0  0  0  0  0  0  0  0  0  0  0
    4.7193   -6.1170    0.0000 C   0  0  0  0  0  0  0  0  0  0  0  0
    3.7156   -7.2317    0.0000 O   0  0  0  0  0  0  0  0  0  0  0  0
    6.1865   -6.4289    0.0000 N   0  0  0  0  0  0  0  0  0  0  0  0
    7.3013   -5.4252    0.0000 C   0  0  0  0  0  0  0  0  0  0  0  0
    8.6003   -6.1752    0.0000 C   0  0  0  0  0  0  0  0  0  0  0  0
    8.2884   -7.6424    0.0000 C   0  0  0  0  0  0  0  0  0  0  0  0
    6.7966   -7.7992    0.0000 C   0  0  0  0  0  0  0  0  0  0  0  0
    6.0466   -9.0982    0.0000 C   0  0  0  0  0  0  0  0  0  0  0  0
    4.5466   -9.0982    0.0000 O   0  0  0  0  0  0  0  0  0  0  0  0
    6.7966  -10.3973    0.0000 N   0  0  0  0  0  0  0  0  0  0  0  0
    6.0466  -11.6963    0.0000 C   0  0  0  0  0  0  0  0  0  0  0  0
    6.7966  -12.9954    0.0000 C   0  0  0  0  0  0  0  0  0  0  0  0
    6.0466  -14.2944    0.0000 C   0  0  0  0  0  0  0  0  0  0  0  0
    5.2966  -15.5934    0.0000 C   0  0  0  0  0  0  0  0  0  0  0  0
    4.5466  -11.6963    0.0000 C   0  0  0  0  0  0  0  0  0  0  0  0
    3.7966  -10.3973    0.0000 O   0  0  0  0  0  0  0  0  0  0  0  0
    3.7966  -12.9954    0.0000 O   0  0  0  0  0  0  0  0  0  0  0  0
  1  2  1  0
  1  3  1  0
  3  4  1  1
  4  5  1  0
  5  6  1  0
  5  7  1  0
  3  8  1  0
  8  9  2  0
  8 10  1  0
 10 11  1  0
 11 12  1  6
 12 13  1  0
 13 14  1  0
 13 15  1  0
 11 16  1  0
 16 17  2  0
 16 18  1  0
 18 19  1  0
 19 20  1  0
 20 21  1  0
 21 22  1  0
 22 23  1  1
 23 24  2  0
 23 25  1  0
 25 26  1  0
 26 27  1  1
 27 28  1  0
 28 29  1  0
 28 30  1  0
 26 31  1  0
 31 32  2  0
 31 33  1  0
 33 34  1  0
 33 35  1  0
 35 36  1  1
 36 37  1  0
 37 38  1  0
 37 39  1  0
 35 40  1  0
 40 41  2  0
 40 42  1  0
 42 43  1  0
 43 44  1  0
 44 45  1  0
 45 46  1  0
 46 47  1  1
 47 48  2  0
 47 49  1  0
 49 50  1  0
 50 51  1  1
 51 52  1  0
 52 53  3  0
 50 54  1  0
 54 55  2  0
 54 56  1  0
 46 42  1  0
 22 18  1  0
M  END
$$$$

     RDKit          2D

 55 56  0  0  0  0  0  0  0  0999 V2000
   -6.5574    2.6509    0.0000 N   0  0  0  0  0  0  0  0  0  0  0  0
   -7.7710    1.7692    0.0000 C   0  0  0  0  0  0  0  0  0  0  0  0
   -9.1413    2.3794    0.0000 C   0  0  0  0  0  0  0  0  0  0  0  0
   -9.2981    3.8711    0.0000 C   0  0  0  0  0  0  0  0  0  0  0  0
  -10.6684    4.4812    0.0000 C   0  0  0  0  0  0  0  0  0  0  0  0
   -8.0845    4.7528    0.0000 C   0  0  0  0  0  0  0  0  0  0  0  0
   -7.6142    0.2775    0.0000 C   0  0  0  0  0  0  0  0  0  0  0  0
   -8.8277   -0.6042    0.0000 O   0  0  0  0  0  0  0  0  0  0  0  0
   -6.2438   -0.3326    0.0000 N   0  0  0  0  0  0  0  0  0  0  0  0
   -6.0870   -1.8244    0.0000 C   0  0  0  0  0  0  0  0  0  0  0  0
   -7.3006   -2.7061    0.0000 C   0  0  0  0  0  0  0  0  0  0  0  0
   -7.1438   -4.1979    0.0000 C   0  0  0  0  0  0  0  0  0  0  0  0
   -8.3573   -5.0796    0.0000 C   0  0  0  0  0  0  0  0  0  0  0  0
   -5.7735   -4.8080    0.0000 C   0  0  0  0  0  0  0  0  0  0  0  0
   -4.7167   -2.4345    0.0000 C   0  0  0  0  0  0  0  0  0  0  0  0
   -4.5599   -3.9263    0.0000 O   0  0  0  0  0  0  0  0  0  0  0  0
   -3.5032   -1.5528    0.0000 N   0  0  0  0  0  0  0  0  0  0  0  0
   -3.5032   -0.0528    0.0000 C   0  0  0  0  0  0  0  0  0  0  0  0
   -2.0766    0.4107    0.0000 C   0  0  0  0  0  0  0  0  0  0  0  0
   -1.1949   -0.8028    0.0000 C   0  0  0  0  0  0  0  0  0  0  0  0
   -2.0766   -2.0164    0.0000 C   0  0  0  0  0  0  0  0  0  0  0  0
   -1.6131   -3.4430    0.0000 C   0  0  0  0  0  0  0  0  0  0  0  0
   -2.6168   -4.5577    0.0000 O   0  0  0  0  0  0  0  0  0  0  0  0
   -0.1459   -3.7548    0.0000 N   0  0  0  0  0  0  0  0  0  0  0  0
    0.3177   -5.1814    0.0000 C   0  0  0  0  0  0  0  0  0  0  0  0
   -0.6860   -6.2961    0.0000 C   0  0  0  0  0  0  0  0  0  0  0  0
   -0.2225   -7.7227    0.0000 C   0  0  0  0  0  0  0  0  0  0  0  0
   -1.2262   -8.8374    0.0000 C   0  0  0  0  0  0  0  0  0  0  0  0
    1.2447   -8.0346    0.0000 C   0  0  0  0  0  0  0  0  0  0  0  0
    1.7849   -5.4933    0.0000 C   0  0  0  0  0  0  0  0  0  0  0  0
    2.2484   -6.9199    0.0000 O   0  0  0  0  0  0  0  0  0  0  0  0
    2.7886   -4.3786    0.0000 N   0  0  0  0  0  0  0  0  0  0  0  0
    2.3250   -2.9520    0.0000 C   0  0  0  0  0  0  0  0  0  0  0  0
    4.2558   -4.6904    0.0000 C   0  0  0  0  0  0  0  0  0  0  0  0
    5.2595   -3.5757    0.0000 C   0  0  0  0  0  0  0  0  0  0  0  0
    4.7960   -2.1491    0.0000 C   0  0  0  0  0  0  0  0  0  0  0  0
    5.7997   -1.0344    0.0000 C   0  0  0  0  0  0  0  0  0  0  0  0
    3.3287   -1.8373    0.0000 C   0  0  0  0  0  0  0  0  0  0  0  0
    4.7193   -6.1170    0.0000 C   0  0  0  0  0  0  0  0  0  0  0  0
    3.7156   -7.2317    0.0000 O   0  0  0  0  0  0  0  0  0  0  0  0
    6.1865   -6.4289    0.0000 N   0  0  0  0  0  0  0  0  0  0  0  0
    7.3013   -5.4252    0.0000 C   0  0  0  0  0  0  0  0  0  0  0  0
    8.6003   -6.1752    0.0000 C   0  0  0  0  0  0  0  0  0  0  0  0
    8.2884   -7.6424    0.0000 C   0  0  0  0  0  0  0  0  0  0  0  0
    6.7966   -7.7992    0.0000 C   0  0  0  0  0  0  0  0  0  0  0  0
    6.0466   -9.0982    0.0000 C   0  0  0  0  0  0  0  0  0  0  0  0
    4.5466   -9.0982    0.0000 O   0  0  0  0  0  0  0  0  0  0  0  0
    6.7966  -10.3973    0.0000 N   0  0  0  0  0  0  0  0  0  0  0  0
    6.0466  -11.6963    0.0000 C   0  0  0  0  0  0  0  0  0  0  0  0
    6.7966  -12.9954    0.0000 C   0  0  0  0  0  0  0  0  0  0  0  0
    6.0466  -14.2944    0.0000 C   0  0  0  0  0  0  0  0  0  0  0  0
    5.2966  -15.5934    0.0000 C   0  0  0  0  0  0  0  0  0  0  0  0
    4.5466  -11.6963    0.0000 C   0  0  0  0  0  0  0  0  0  0  0  0
    3.7966  -10.3973    0.0000 O   0  0  0  0  0  0  0  0  0  0  0  0
    3.7966  -12.9954    0.0000 O   0  0  0  0  0  0  0  0  0  0  0  0
  2  1  1  6
  2  3  1  0
  3  4  1  0
  4  5  1  0
  4  6  1  0
  2  7  1  0
  7  8  2  0
  7  9  1  0
  9 10  1  0
 10 11  1  1
 11 12  1  0
 12 13  1  0
 12 14  1  0
 10 15  1  0
 15 16  2  0
 15 17  1  0
 17 18  1  0
 18 19  1  0
 19 20  1  0
 20 21  1  0
 21 22  1  1
 22 23  2  0
 22 24  1  0
 24 25  1  0
 25 26  1  1
 26 27  1  0
 27 28  1  0
 27 29  1  0
 25 30  1  0
 30 31  2  0
 30 32  1  0
 32 33  1  0
 32 34  1  0
 34 35  1  1
 35 36  1  0
 36 37  1  0
 36 38  1  0
 34 39  1  0
 39 40  2  0
 39 41  1  0
 41 42  1  0
 42 43  1  0
 43 44  1  0
 44 45  1  0
 45 46  1  1
 46 47  2  0
 46 48  1  0
 48 49  1  0
 49 50  1  1
 50 51  1  0
 51 52  3  0
 49 53  1  0
 53 54  2  0
 53 55  1  0
 45 41  1  0
 21 17  1  0
M  END
$$$$

     RDKit          2D

 55 56  0  0  0  0  0  0  0  0999 V2000
   -6.5574    2.6509    0.0000 N   0  0  0  0  0  0  0  0  0  0  0  0
   -7.7710    1.7692    0.0000 C   0  0  0  0  0  0  0  0  0  0  0  0
   -9.1413    2.3794    0.0000 C   0  0  0  0  0  0  0  0  0  0  0  0
   -9.2981    3.8711    0.0000 C   0  0  0  0  0  0  0  0  0  0  0  0
  -10.6684    4.4812    0.0000 C   0  0  0  0  0  0  0  0  0  0  0  0
   -8.0845    4.7528    0.0000 C   0  0  0  0  0  0  0  0  0  0  0  0
   -7.6142    0.2775    0.0000 C   0  0  0  0  0  0  0  0  0  0  0  0
   -8.8277   -0.6042    0.0000 O   0  0  0  0  0  0  0  0  0  0  0  0
   -6.2438   -0.3326    0.0000 N   0  0  0  0  0  0  0  0  0  0  0  0
   -6.0870   -1.8244    0.0000 C   0  0  0  0  0  0  0  0  0  0  0  0
   -7.3006   -2.7061    0.0000 C   0  0  0  0  0  0  0  0  0  0  0  0
   -7.1438   -4.1979    0.0000 C   0  0  0  0  0  0  0  0  0  0  0  0
   -8.3573   -5.0796    0.0000 C   0  0  0  0  0  0  0  0  0  0  0  0
   -5.7735   -4.8080    0.0000 C   0  0  0  0  0  0  0  0  0  0  0  0
   -4.7167   -2.4345    0.0000 C   0  0  0  0  0  0  0  0  0  0  0  0
   -4.5599   -3.9263    0.0000 O   0  0  0  0  0  0  0  0  0  0  0  0
   -3.5032   -1.5528    0.0000 N   0  0  0  0  0  0  0  0  0  0  0  0
   -3.5032   -0.0528    0.0000 C   0  0  0  0  0  0  0  0  0  0  0  0
   -2.0766    0.4107    0.0000 C   0  0  0  0  0  0  0  0  0  0  0  0
   -1.1949   -0.8028    0.0000 C   0  0  0  0  0  0  0  0  0  0  0  0
   -2.0766   -2.0164    0.0000 C   0  0  0  0  0  0  0  0  0  0  0  0
   -1.6131   -3.4430    0.0000 C   0  0  0  0  0  0  0  0  0  0  0  0
   -2.6168   -4.5577    0.0000 O   0  0  0  0  0  0  0  0  0  0  0  0
   -0.1459   -3.7548    0.0000 N   0  0  0  0  0  0  0  0  0  0  0  0
    0.3177   -5.1814    0.0000 C   0  0  0  0  0  0  0  0  0  0  0  0
   -0.6860   -6.2961    0.0000 C   0  0  0  0  0  0  0  0  0  0  0  0
   -0.2225   -7.7227    0.0000 C   0  0  0  0  0  0  0  0  0  0  0  0
   -1.2262   -8.8374    0.0000 C   0  0  0  0  0  0  0  0  0  0  0  0
    1.2447   -8.0346    0.0000 C   0  0  0  0  0  0  0  0  0  0  0  0
    1.7849   -5.4933    0.0000 C   0  0  0  0  0  0  0  0  0  0  0  0
    2.2484   -6.9199    0.0000 O   0  0  0  0  0  0  0  0  0  0  0  0
    2.7886   -4.3786    0.0000 N   0  0  0  0  0  0  0  0  0  0  0  0
    2.3250   -2.9520    0.0000 C   0  0  0  0  0  0  0  0  0  0  0  0
    4.2558   -4.6904    0.0000 C   0  0  0  0  0  0  0  0  0  0  0  0
    5.2595   -3.5757    0.0000 C   0  0  0  0  0  0  0  0  0  0  0  0
    4.7960   -2.1491    0.0000 C   0  0  0  0  0  0  0  0  0  0  0  0
    5.7997   -1.0344    0.0000 C   0  0  0  0  0  0  0  0  0  0  0  0
    3.3287   -1.8373    0.0000 C   0  0  0  0  0  0  0  0  0  0  0  0
    4.7193   -6.1170    0.0000 C   0  0  0  0  0  0  0  0  0  0  0  0
    3.7156   -7.2317    0.0000 O   0  0  0  0  0  0  0  0  0  0  0  0
    6.1865   -6.4289    0.0000 N   0  0  0  0  0  0  0  0  0  0  0  0
    7.3013   -5.4252    0.0000 C   0  0  0  0  0  0  0  0  0  0  0  0
    8.6003   -6.1752    0.0000 C   0  0  0  0  0  0  0  0  0  0  0  0
    8.2884   -7.6424    0.0000 C   0  0  0  0  0  0  0  0  0  0  0  0
    6.7966   -7.7992    0.0000 C   0  0  0  0  0  0  0  0  0  0  0  0
    6.0466   -9.0982    0.0000 C   0  0  0  0  0  0  0  0  0  0  0  0
    4.5466   -9.0982    0.0000 O   0  0  0  0  0  0  0  0  0  0  0  0
    6.7966  -10.3973    0.0000 N   0  0  0  0  0  0  0  0  0  0  0  0
    6.0466  -11.6963    0.0000 C   0  0  0  0  0  0  0  0  0  0  0  0
    6.7966  -12.9954    0.0000 C   0  0  0  0  0  0  0  0  0  0  0  0
    6.0466  -14.2944    0.0000 C   0  0  0  0  0  0  0  0  0  0  0  0
    5.2966  -15.5934    0.0000 C   0  0  0  0  0  0  0  0  0  0  0  0
    4.5466  -11.6963    0.0000 C   0  0  0  0  0  0  0  0  0  0  0  0
    3.7966  -10.3973    0.0000 O   0  0  0  0  0  0  0  0  0  0  0  0
    3.7966  -12.9954    0.0000 O   0  0  0  0  0  0  0  0  0  0  0  0
  2  1  1  1
  2  3  1  0
  3  4  1  0
  4  5  1  0
  4  6  1  0
  2  7  1  0
  7  8  2  0
  7  9  1  0
  9 10  1  0
 10 11  1  1
 11 12  1  0
 12 13  1  0
 12 14  1  0
 10 15  1  0
 15 16  2  0
 15 17  1  0
 17 18  1  0
 18 19  1  0
 19 20  1  0
 20 21  1  0
 21 22  1  1
 22 23  2  0
 22 24  1  0
 24 25  1  0
 25 26  1  1
 26 27  1  0
 27 28  1  0
 27 29  1  0
 25 30  1  0
 30 31  2  0
 30 32  1  0
 32 33  1  0
 32 34  1  0
 34 35  1  1
 35 36  1  0
 36 37  1  0
 36 38  1  0
 34 39  1  0
 39 40  2  0
 39 41  1  0
 41 42  1  0
 42 43  1  0
 43 44  1  0
 44 45  1  0
 45 46  1  1
 46 47  2  0
 46 48  1  0
 48 49  1  0
 49 50  1  1
 50 51  1  0
 51 52  3  0
 49 53  1  0
 53 54  2  0
 53 55  1  0
 45 41  1  0
 21 17  1  0
M  END
$$$$

     RDKit          2D

 56 57  0  0  0  0  0  0  0  0999 V2000
   -6.5574    2.6509    0.0000 N   0  0  0  0  0  0  0  0  0  0  0  0
   -6.7142    4.1427    0.0000 C   0  0  0  0  0  0  0  0  0  0  0  0
   -7.7710    1.7692    0.0000 C   0  0  0  0  0  0  0  0  0  0  0  0
   -9.1413    2.3794    0.0000 C   0  0  0  0  0  0  0  0  0  0  0  0
   -9.2981    3.8711    0.0000 C   0  0  0  0  0  0  0  0  0  0  0  0
  -10.6684    4.4812    0.0000 C   0  0  0  0  0  0  0  0  0  0  0  0
   -8.0845    4.7528    0.0000 C   0  0  0  0  0  0  0  0  0  0  0  0
   -7.6142    0.2775    0.0000 C   0  0  0  0  0  0  0  0  0  0  0  0
   -8.8277   -0.6042    0.0000 O   0  0  0  0  0  0  0  0  0  0  0  0
   -6.2438   -0.3326    0.0000 N   0  0  0  0  0  0  0  0  0  0  0  0
   -6.0870   -1.8244    0.0000 C   0  0  0  0  0  0  0  0  0  0  0  0
   -7.3006   -2.7061    0.0000 C   0  0  0  0  0  0  0  0  0  0  0  0
   -7.1438   -4.1979    0.0000 C   0  0  0  0  0  0  0  0  0  0  0  0
   -8.3573   -5.0796    0.0000 C   0  0  0  0  0  0  0  0  0  0  0  0
   -5.7735   -4.8080    0.0000 C   0  0  0  0  0  0  0  0  0  0  0  0
   -4.7167   -2.4345    0.0000 C   0  0  0  0  0  0  0  0  0  0  0  0
   -4.5599   -3.9263    0.0000 O   0  0  0  0  0  0  0  0  0  0  0  0
   -3.5032   -1.5528    0.0000 N   0  0  0  0  0  0  0  0  0  0  0  0
   -3.5032   -0.0528    0.0000 C   0  0  0  0  0  0  0  0  0  0  0  0
   -2.0766    0.4107    0.0000 C   0  0  0  0  0  0  0  0  0  0  0  0
   -1.1949   -0.8028    0.0000 C   0  0  0  0  0  0  0  0  0  0  0  0
   -2.0766   -2.0164    0.0000 C   0  0  0  0  0  0  0  0  0  0  0  0
   -1.6131   -3.4430    0.0000 C   0  0  0  0  0  0  0  0  0  0  0  0
   -2.6168   -4.5577    0.0000 O   0  0  0  0  0  0  0  0  0  0  0  0
   -0.1459   -3.7548    0.0000 N   0  0  0  0  0  0  0  0  0  0  0  0
    0.3177   -5.1814    0.0000 C   0  0  0  0  0  0  0  0  0  0  0  0
   -0.6860   -6.2961    0.0000 C   0  0  0  0  0  0  0  0  0  0  0  0
   -0.2225   -7.7227    0.0000 C   0  0  0  0  0  0  0  0  0  0  0  0
   -1.2262   -8.8374    0.0000 C   0  0  0  0  0  0  0  0  0  0  0  0
    1.2447   -8.0346    0.0000 C   0  0  0  0  0  0  0  0  0  0  0  0
    1.7849   -5.4933    0.0000 C   0  0  0  0  0  0  0  0  0  0  0  0
    2.2484   -6.9199    0.0000 O   0  0  0  0  0  0  0  0  0  0  0  0
    2.7886   -4.3786    0.0000 N   0  0  0  0  0  0  0  0  0  0  0  0
    2.3250   -2.9520    0.0000 C   0  0  0  0  0  0  0  0  0  0  0  0
    4.2558   -4.6904    0.0000 C   0  0  0  0  0  0  0  0  0  0  0  0
    5.2595   -3.5757    0.0000 C   0  0  0  0  0  0  0  0  0  0  0  0
    4.7960   -2.1491    0.0000 C   0  0  0  0  0  0  0  0  0  0  0  0
    5.7997   -1.0344    0.0000 C   0  0  0  0  0  0  0  0  0  0  0  0
    3.3287   -1.8373    0.0000 C   0  0  0  0  0  0  0  0  0  0  0  0
    4.7193   -6.1170    0.0000 C   0  0  0  0  0  0  0  0  0  0  0  0
    3.7156   -7.2317    0.0000 O   0  0  0  0  0  0  0  0  0  0  0  0
    6.1865   -6.4289    0.0000 N   0  0  0  0  0  0  0  0  0  0  0  0
    7.3013   -5.4252    0.0000 C   0  0  0  0  0  0  0  0  0  0  0  0
    8.6003   -6.1752    0.0000 C   0  0  0  0  0  0  0  0  0  0  0  0
    8.2884   -7.6424    0.0000 C   0  0  0  0  0  0  0  0  0  0  0  0
    6.7966   -7.7992    0.0000 C   0  0  0  0  0  0  0  0  0  0  0  0
    6.0466   -9.0982    0.0000 C   0  0  0  0  0  0  0  0  0  0  0  0
    4.5466   -9.0982    0.0000 O   0  0  0  0  0  0  0  0  0  0  0  0
    6.7966  -10.3973    0.0000 N   0  0  0  0  0  0  0  0  0  0  0  0
    6.0466  -11.6963    0.0000 C   0  0  0  0  0  0  0  0  0  0  0  0
    6.7966  -12.9954    0.0000 C   0  0  0  0  0  0  0  0  0  0  0  0
    6.0466  -14.2944    0.0000 C   0  0  0  0  0  0  0  0  0  0  0  0
    5.2966  -15.5934    0.0000 C   0  0  0  0  0  0  0  0  0  0  0  0
    4.5466  -11.6963    0.0000 C   0  0  0  0  0  0  0  0  0  0  0  0
    3.7966  -10.3973    0.0000 O   0  0  0  0  0  0  0  0  0  0  0  0
    3.7966  -12.9954    0.0000 O   0  0  0  0  0  0  0  0  0  0  0  0
  1  2  1  0
  1  3  1  0
  3  4  1  6
  4  5  1  0
  5  6  1  0
  5  7  1  0
  3  8  1  0
  8  9  2  0
  8 10  1  0
 10 11  1  0
 11 12  1  1
 12 13  1  0
 13 14  1  0
 13 15  1  0
 11 16  1  0
 16 17  2  0
 16 18  1  0
 18 19  1  0
 19 20  1  0
 20 21  1  0
 21 22  1  0
 22 23  1  1
 23 24  2  0
 23 25  1  0
 25 26  1  0
 26 27  1  1
 27 28  1  0
 28 29  1  0
 28 30  1  0
 26 31  1  0
 31 32  2  0
 31 33  1  0
 33 34  1  0
 33 35  1  0
 35 36  1  1
 36 37  1  0
 37 38  1  0
 37 39  1  0
 35 40  1  0
 40 41  2  0
 40 42  1  0
 42 43  1  0
 43 44  1  0
 44 45  1  0
 45 46  1  0
 46 47  1  1
 47 48  2  0
 47 49  1  0
 49 50  1  0
 50 51  1  1
 51 52  1  0
 52 53  3  0
 50 54  1  0
 54 55  2  0
 54 56  1  0
 46 42  1  0
 22 18  1  0
M  END
$$$$

     RDKit          2D

 56 57  0  0  0  0  0  0  0  0999 V2000
   -6.5574    2.6509    0.0000 N   0  0  0  0  0  0  0  0  0  0  0  0
   -6.7142    4.1427    0.0000 C   0  0  0  0  0  0  0  0  0  0  0  0
   -7.7710    1.7692    0.0000 C   0  0  0  0  0  0  0  0  0  0  0  0
   -9.1413    2.3794    0.0000 C   0  0  0  0  0  0  0  0  0  0  0  0
   -9.2981    3.8711    0.0000 C   0  0  0  0  0  0  0  0  0  0  0  0
  -10.6684    4.4812    0.0000 C   0  0  0  0  0  0  0  0  0  0  0  0
   -8.0845    4.7528    0.0000 C   0  0  0  0  0  0  0  0  0  0  0  0
   -7.6142    0.2775    0.0000 C   0  0  0  0  0  0  0  0  0  0  0  0
   -8.8277   -0.6042    0.0000 O   0  0  0  0  0  0  0  0  0  0  0  0
   -6.2438   -0.3326    0.0000 N   0  0  0  0  0  0  0  0  0  0  0  0
   -6.0870   -1.8244    0.0000 C   0  0  0  0  0  0  0  0  0  0  0  0
   -7.3006   -2.7061    0.0000 C   0  0  0  0  0  0  0  0  0  0  0  0
   -7.1438   -4.1979    0.0000 C   0  0  0  0  0  0  0  0  0  0  0  0
   -8.3573   -5.0796    0.0000 C   0  0  0  0  0  0  0  0  0  0  0  0
   -5.7735   -4.8080    0.0000 C   0  0  0  0  0  0  0  0  0  0  0  0
   -4.7167   -2.4345    0.0000 C   0  0  0  0  0  0  0  0  0  0  0  0
   -4.5599   -3.9263    0.0000 O   0  0  0  0  0  0  0  0  0  0  0  0
   -3.5032   -1.5528    0.0000 N   0  0  0  0  0  0  0  0  0  0  0  0
   -3.5032   -0.0528    0.0000 C   0  0  0  0  0  0  0  0  0  0  0  0
   -2.0766    0.4107    0.0000 C   0  0  0  0  0  0  0  0  0  0  0  0
   -1.1949   -0.8028    0.0000 C   0  0  0  0  0  0  0  0  0  0  0  0
   -2.0766   -2.0164    0.0000 C   0  0  0  0  0  0  0  0  0  0  0  0
   -1.6131   -3.4430    0.0000 C   0  0  0  0  0  0  0  0  0  0  0  0
   -2.6168   -4.5577    0.0000 O   0  0  0  0  0  0  0  0  0  0  0  0
   -0.1459   -3.7548    0.0000 N   0  0  0  0  0  0  0  0  0  0  0  0
    0.3177   -5.1814    0.0000 C   0  0  0  0  0  0  0  0  0  0  0  0
   -0.6860   -6.2961    0.0000 C   0  0  0  0  0  0  0  0  0  0  0  0
   -0.2225   -7.7227    0.0000 C   0  0  0  0  0  0  0  0  0  0  0  0
   -1.2262   -8.8374    0.0000 C   0  0  0  0  0  0  0  0  0  0  0  0
    1.2447   -8.0346    0.0000 C   0  0  0  0  0  0  0  0  0  0  0  0
    1.7849   -5.4933    0.0000 C   0  0  0  0  0  0  0  0  0  0  0  0
    2.2484   -6.9199    0.0000 O   0  0  0  0  0  0  0  0  0  0  0  0
    2.7886   -4.3786    0.0000 N   0  0  0  0  0  0  0  0  0  0  0  0
    2.3250   -2.9520    0.0000 C   0  0  0  0  0  0  0  0  0  0  0  0
    4.2558   -4.6904    0.0000 C   0  0  0  0  0  0  0  0  0  0  0  0
    5.2595   -3.5757    0.0000 C   0  0  0  0  0  0  0  0  0  0  0  0
    4.7960   -2.1491    0.0000 C   0  0  0  0  0  0  0  0  0  0  0  0
    5.7997   -1.0344    0.0000 C   0  0  0  0  0  0  0  0  0  0  0  0
    3.3287   -1.8373    0.0000 C   0  0  0  0  0  0  0  0  0  0  0  0
    4.7193   -6.1170    0.0000 C   0  0  0  0  0  0  0  0  0  0  0  0
    3.7156   -7.2317    0.0000 O   0  0  0  0  0  0  0  0  0  0  0  0
    6.1865   -6.4289    0.0000 N   0  0  0  0  0  0  0  0  0  0  0  0
    7.3013   -5.4252    0.0000 C   0  0  0  0  0  0  0  0  0  0  0  0
    8.6003   -6.1752    0.0000 C   0  0  0  0  0  0  0  0  0  0  0  0
    8.2884   -7.6424    0.0000 C   0  0  0  0  0  0  0  0  0  0  0  0
    6.7966   -7.7992    0.0000 C   0  0  0  0  0  0  0  0  0  0  0  0
    6.0466   -9.0982    0.0000 C   0  0  0  0  0  0  0  0  0  0  0  0
    4.5466   -9.0982    0.0000 O   0  0  0  0  0  0  0  0  0  0  0  0
    6.7966  -10.3973    0.0000 N   0  0  0  0  0  0  0  0  0  0  0  0
    6.0466  -11.6963    0.0000 C   0  0  0  0  0  0  0  0  0  0  0  0
    6.7966  -12.9954    0.0000 C   0  0  0  0  0  0  0  0  0  0  0  0
    6.0466  -14.2944    0.0000 C   0  0  0  0  0  0  0  0  0  0  0  0
    5.2966  -15.5934    0.0000 C   0  0  0  0  0  0  0  0  0  0  0  0
    4.5466  -11.6963    0.0000 C   0  0  0  0  0  0  0  0  0  0  0  0
    3.7966  -10.3973    0.0000 O   0  0  0  0  0  0  0  0  0  0  0  0
    3.7966  -12.9954    0.0000 O   0  0  0  0  0  0  0  0  0  0  0  0
  1  2  1  0
  1  3  1  0
  3  4  1  1
  4  5  1  0
  5  6  1  0
  5  7  1  0
  3  8  1  0
  8  9  2  0
  8 10  1  0
 10 11  1  0
 11 12  1  1
 12 13  1  0
 13 14  1  0
 13 15  1  0
 11 16  1  0
 16 17  2  0
 16 18  1  0
 18 19  1  0
 19 20  1  0
 20 21  1  0
 21 22  1  0
 22 23  1  1
 23 24  2  0
 23 25  1  0
 25 26  1  0
 26 27  1  1
 27 28  1  0
 28 29  1  0
 28 30  1  0
 26 31  1  0
 31 32  2  0
 31 33  1  0
 33 34  1  0
 33 35  1  0
 35 36  1  1
 36 37  1  0
 37 38  1  0
 37 39  1  0
 35 40  1  0
 40 41  2  0
 40 42  1  0
 42 43  1  0
 43 44  1  0
 44 45  1  0
 45 46  1  0
 46 47  1  1
 47 48  2  0
 47 49  1  0
 49 50  1  0
 50 51  1  1
 51 52  1  0
 52 53  3  0
 50 54  1  0
 54 55  2  0
 54 56  1  0
 46 42  1  0
 22 18  1  0
M  END
$$$$

     RDKit          2D

 56 57  0  0  0  0  0  0  0  0999 V2000
    8.0260    1.2990    0.0000 N   0  0  0  0  0  0  0  0  0  0  0  0
    7.2760    0.0000    0.0000 C   0  0  0  0  0  0  0  0  0  0  0  0
    8.0260   -1.2990    0.0000 C   0  0  0  0  0  0  0  0  0  0  0  0
    9.5260   -1.2990    0.0000 C   0  0  0  0  0  0  0  0  0  0  0  0
   10.2760   -2.5981    0.0000 C   0  0  0  0  0  0  0  0  0  0  0  0
   10.2760    0.0000    0.0000 C   0  0  0  0  0  0  0  0  0  0  0  0
    5.7760    0.0000    0.0000 C   0  0  0  0  0  0  0  0  0  0  0  0
    5.0260   -1.2990    0.0000 O   0  0  0  0  0  0  0  0  0  0  0  0
    5.0260    1.2990    0.0000 N   0  0  0  0  0  0  0  0  0  0  0  0
    5.7760    2.5981    0.0000 C   0  0  0  0  0  0  0  0  0  0  0  0
    3.5260    1.2990    0.0000 C   0  0  0  0  0  0  0  0  0  0  0  0
    2.7760    2.5981    0.0000 C   0  0  0  0  0  0  0  0  0  0  0  0
    3.5260    3.8971    0.0000 C   0  0  0  0  0  0  0  0  0  0  0  0
    2.7760    5.1962    0.0000 C   0  0  0  0  0  0  0  0  0  0  0  0
    5.0260    3.8971    0.0000 C   0  0  0  0  0  0  0  0  0  0  0  0
    2.7760    0.0000    0.0000 C   0  0  0  0  0  0  0  0  0  0  0  0
    3.5260   -1.2990    0.0000 O   0  0  0  0  0  0  0  0  0  0  0  0
    1.2760    0.0000    0.0000 N   0  0  0  0  0  0  0  0  0  0  0  0
    0.3943    1.2135    0.0000 C   0  0  0  0  0  0  0  0  0  0  0  0
   -1.0323    0.7500    0.0000 C   0  0  0  0  0  0  0  0  0  0  0  0
   -1.0323   -0.7500    0.0000 C   0  0  0  0  0  0  0  0  0  0  0  0
    0.3943   -1.2135    0.0000 C   0  0  0  0  0  0  0  0  0  0  0  0
    0.8578   -2.6401    0.0000 C   0  0  0  0  0  0  0  0  0  0  0  0
    2.3250   -2.9520    0.0000 O   0  0  0  0  0  0  0  0  0  0  0  0
   -0.1459   -3.7548    0.0000 N   0  0  0  0  0  0  0  0  0  0  0  0
    0.3177   -5.1814    0.0000 C   0  0  0  0  0  0  0  0  0  0  0  0
   -0.6860   -6.2961    0.0000 C   0  0  0  0  0  0  0  0  0  0  0  0
   -2.1533   -5.9843    0.0000 C   0  0  0  0  0  0  0  0  0  0  0  0
   -3.1570   -7.0990    0.0000 C   0  0  0  0  0  0  0  0  0  0  0  0
   -2.6168   -4.5577    0.0000 C   0  0  0  0  0  0  0  0  0  0  0  0
    1.7849   -5.4933    0.0000 C   0  0  0  0  0  0  0  0  0  0  0  0
    2.7886   -4.3786    0.0000 O   0  0  0  0  0  0  0  0  0  0  0  0
    2.2484   -6.9199    0.0000 N   0  0  0  0  0  0  0  0  0  0  0  0
    3.7156   -7.2317    0.0000 C   0  0  0  0  0  0  0  0  0  0  0  0
    1.2447   -8.0346    0.0000 C   0  0  0  0  0  0  0  0  0  0  0  0
   -0.2225   -7.7227    0.0000 C   0  0  0  0  0  0  0  0  0  0  0  0
   -1.2262   -8.8374    0.0000 C   0  0  0  0  0  0  0  0  0  0  0  0
   -2.6934   -8.5256    0.0000 C   0  0  0  0  0  0  0  0  0  0  0  0
   -0.7627  -10.2640    0.0000 C   0  0  0  0  0  0  0  0  0  0  0  0
    1.7082   -9.4612    0.0000 C   0  0  0  0  0  0  0  0  0  0  0  0
    0.7045  -10.5759    0.0000 O   0  0  0  0  0  0  0  0  0  0  0  0
    3.1755   -9.7730    0.0000 N   0  0  0  0  0  0  0  0  0  0  0  0
    4.2902   -8.7693    0.0000 C   0  0  0  0  0  0  0  0  0  0  0  0
    5.5892   -9.5193    0.0000 C   0  0  0  0  0  0  0  0  0  0  0  0
    5.2773  -10.9866    0.0000 C   0  0  0  0  0  0  0  0  0  0  0  0
    3.7856  -11.1434    0.0000 C   0  0  0  0  0  0  0  0  0  0  0  0
    3.0356  -12.4424    0.0000 C   0  0  0  0  0  0  0  0  0  0  0  0
    1.5356  -12.4424    0.0000 O   0  0  0  0  0  0  0  0  0  0  0  0
    3.7856  -13.7414    0.0000 N   0  0  0  0  0  0  0  0  0  0  0  0
    3.0356  -15.0405    0.0000 C   0  0  0  0  0  0  0  0  0  0  0  0
    3.7856  -16.3395    0.0000 C   0  0  0  0  0  0  0  0  0  0  0  0
    3.0356  -17.6385    0.0000 C   0  0  0  0  0  0  0  0  0  0  0  0
    2.2856  -18.9376    0.0000 C   0  0  0  0  0  0  0  0  0  0  0  0
    1.5356  -15.0405    0.0000 C   0  0  0  0  0  0  0  0  0  0  0  0
    0.7856  -13.7414    0.0000 O   0  0  0  0  0  0  0  0  0  0  0  0
    0.7856  -16.3395    0.0000 O   0  0  0  0  0  0  0  0  0  0  0  0
  2  1  1  1
  2  3  1  0
  3  4  1  0
  4  5  1  0
  4  6  1  0
  2  7  1  0
  7  8  2  0
  7  9  1  0
  9 10  1  0
  9 11  1  0
 11 12  1  6
 12 13  1  0
 13 14  1  0
 13 15  1  0
 11 16  1  0
 16 17  2  0
 16 18  1  0
 18 19  1  0
 19 20  1  0
 20 21  1  0
 21 22  1  0
 22 23  1  6
 23 24  2  0
 23 25  1  0
 25 26  1  0
 26 27  1  1
 27 28  1  0
 28 29  1  0
 28 30  1  0
 26 31  1  0
 31 32  2  0
 31 33  1  0
 33 34  1  0
 33 35  1  0
 35 36  1  6
 36 37  1  0
 37 38  1  0
 37 39  1  0
 35 40  1  0
 40 41  2  0
 40 42  1  0
 42 43  1  0
 43 44  1  0
 44 45  1  0
 45 46  1  0
 46 47  1  1
 47 48  2  0
 47 49  1  0
 49 50  1  0
 50 51  1  1
 51 52  1  0
 52 53  3  0
 50 54  1  0
 54 55  2  0
 54 56  1  0
 46 42  1  0
 22 18  1  0
M  END
$$$$

     RDKit          2D

 56 57  0  0  0  0  0  0  0  0999 V2000
    8.0260    1.2990    0.0000 N   0  0  0  0  0  0  0  0  0  0  0  0
    7.2760    0.0000    0.0000 C   0  0  0  0  0  0  0  0  0  0  0  0
    8.0260   -1.2990    0.0000 C   0  0  0  0  0  0  0  0  0  0  0  0
    9.5260   -1.2990    0.0000 C   0  0  0  0  0  0  0  0  0  0  0  0
   10.2760   -2.5981    0.0000 C   0  0  0  0  0  0  0  0  0  0  0  0
   10.2760    0.0000    0.0000 C   0  0  0  0  0  0  0  0  0  0  0  0
    5.7760    0.0000    0.0000 C   0  0  0  0  0  0  0  0  0  0  0  0
    5.0260   -1.2990    0.0000 O   0  0  0  0  0  0  0  0  0  0  0  0
    5.0260    1.2990    0.0000 N   0  0  0  0  0  0  0  0  0  0  0  0
    5.7760    2.5981    0.0000 C   0  0  0  0  0  0  0  0  0  0  0  0
    3.5260    1.2990    0.0000 C   0  0  0  0  0  0  0  0  0  0  0  0
    2.7760    2.5981    0.0000 C   0  0  0  0  0  0  0  0  0  0  0  0
    3.5260    3.8971    0.0000 C   0  0  0  0  0  0  0  0  0  0  0  0
    2.7760    5.1962    0.0000 C   0  0  0  0  0  0  0  0  0  0  0  0
    5.0260    3.8971    0.0000 C   0  0  0  0  0  0  0  0  0  0  0  0
    2.7760    0.0000    0.0000 C   0  0  0  0  0  0  0  0  0  0  0  0
    3.5260   -1.2990    0.0000 O   0  0  0  0  0  0  0  0  0  0  0  0
    1.2760    0.0000    0.0000 N   0  0  0  0  0  0  0  0  0  0  0  0
    0.3943    1.2135    0.0000 C   0  0  0  0  0  0  0  0  0  0  0  0
   -1.0323    0.7500    0.0000 C   0  0  0  0  0  0  0  0  0  0  0  0
   -1.0323   -0.7500    0.0000 C   0  0  0  0  0  0  0  0  0  0  0  0
    0.3943   -1.2135    0.0000 C   0  0  0  0  0  0  0  0  0  0  0  0
    0.8578   -2.6401    0.0000 C   0  0  0  0  0  0  0  0  0  0  0  0
    2.3250   -2.9520    0.0000 O   0  0  0  0  0  0  0  0  0  0  0  0
   -0.1459   -3.7548    0.0000 N   0  0  0  0  0  0  0  0  0  0  0  0
    0.3177   -5.1814    0.0000 C   0  0  0  0  0  0  0  0  0  0  0  0
   -0.6860   -6.2961    0.0000 C   0  0  0  0  0  0  0  0  0  0  0  0
   -2.1533   -5.9843    0.0000 C   0  0  0  0  0  0  0  0  0  0  0  0
   -3.1570   -7.0990    0.0000 C   0  0  0  0  0  0  0  0  0  0  0  0
   -2.6168   -4.5577    0.0000 C   0  0  0  0  0  0  0  0  0  0  0  0
    1.7849   -5.4933    0.0000 C   0  0  0  0  0  0  0  0  0  0  0  0
    2.7886   -4.3786    0.0000 O   0  0  0  0  0  0  0  0  0  0  0  0
    2.2484   -6.9199    0.0000 N   0  0  0  0  0  0  0  0  0  0  0  0
    3.7156   -7.2317    0.0000 C   0  0  0  0  0  0  0  0  0  0  0  0
    1.2447   -8.0346    0.0000 C   0  0  0  0  0  0  0  0  0  0  0  0
   -0.2225   -7.7227    0.0000 C   0  0  0  0  0  0  0  0  0  0  0  0
   -1.2262   -8.8374    0.0000 C   0  0  0  0  0  0  0  0  0  0  0  0
   -2.6934   -8.5256    0.0000 C   0  0  0  0  0  0  0  0  0  0  0  0
   -0.7627  -10.2640    0.0000 C   0  0  0  0  0  0  0  0  0  0  0  0
    1.7082   -9.4612    0.0000 C   0  0  0  0  0  0  0  0  0  0  0  0
    0.7045  -10.5759    0.0000 O   0  0  0  0  0  0  0  0  0  0  0  0
    3.1755   -9.7730    0.0000 N   0  0  0  0  0  0  0  0  0  0  0  0
    4.2902   -8.7693    0.0000 C   0  0  0  0  0  0  0  0  0  0  0  0
    5.5892   -9.5193    0.0000 C   0  0  0  0  0  0  0  0  0  0  0  0
    5.2773  -10.9866    0.0000 C   0  0  0  0  0  0  0  0  0  0  0  0
    3.7856  -11.1434    0.0000 C   0  0  0  0  0  0  0  0  0  0  0  0
    3.0356  -12.4424    0.0000 C   0  0  0  0  0  0  0  0  0  0  0  0
    1.5356  -12.4424    0.0000 O   0  0  0  0  0  0  0  0  0  0  0  0
    3.7856  -13.7414    0.0000 N   0  0  0  0  0  0  0  0  0  0  0  0
    3.0356  -15.0405    0.0000 C   0  0  0  0  0  0  0  0  0  0  0  0
    3.7856  -16.3395    0.0000 C   0  0  0  0  0  0  0  0  0  0  0  0
    3.0356  -17.6385    0.0000 C   0  0  0  0  0  0  0  0  0  0  0  0
    2.2856  -18.9376    0.0000 C   0  0  0  0  0  0  0  0  0  0  0  0
    1.5356  -15.0405    0.0000 C   0  0  0  0  0  0  0  0  0  0  0  0
    0.7856  -13.7414    0.0000 O   0  0  0  0  0  0  0  0  0  0  0  0
    0.7856  -16.3395    0.0000 O   0  0  0  0  0  0  0  0  0  0  0  0
  2  1  1  6
  2  3  1  0
  3  4  1  0
  4  5  1  0
  4  6  1  0
  2  7  1  0
  7  8  2  0
  7  9  1  0
  9 10  1  0
  9 11  1  0
 11 12  1  6
 12 13  1  0
 13 14  1  0
 13 15  1  0
 11 16  1  0
 16 17  2  0
 16 18  1  0
 18 19  1  0
 19 20  1  0
 20 21  1  0
 21 22  1  0
 22 23  1  6
 23 24  2  0
 23 25  1  0
 25 26  1  0
 26 27  1  1
 27 28  1  0
 28 29  1  0
 28 30  1  0
 26 31  1  0
 31 32  2  0
 31 33  1  0
 33 34  1  0
 33 35  1  0
 35 36  1  6
 36 37  1  0
 37 38  1  0
 37 39  1  0
 35 40  1  0
 40 41  2  0
 40 42  1  0
 42 43  1  0
 43 44  1  0
 44 45  1  0
 45 46  1  0
 46 47  1  1
 47 48  2  0
 47 49  1  0
 49 50  1  0
 50 51  1  1
 51 52  1  0
 52 53  3  0
 50 54  1  0
 54 55  2  0
 54 56  1  0
 22 18  1  0
 46 42  1  0
M  END
$$$$
